* File: alu.pex.netlist
* Created: Wed May  1 12:16:42 2024
* Program "Calibre xRC"
* Version "v2013.2_18.13"
* 
.include "alu.pex.netlist.pex"
.subckt alu  GND! OUT<0> OUT<1> OUT<2> OUT<3> VDD! A<0> A<1> INST<0> RESET A<2>
+ INST<1> CLK A<3>
* 
* A<3>	A<3>
* CLK	CLK
* INST<1>	INST<1>
* A<2>	A<2>
* RESET	RESET
* INST<0>	INST<0>
* A<1>	A<1>
* A<0>	A<0>
* VDD	VDD
* OUT<3>	OUT<3>
* OUT<2>	OUT<2>
* OUT<1>	OUT<1>
* OUT<0>	OUT<0>
* VSS	VSS
XD0_noxref N_GND!_D0_noxref_pos N_VDD!_D0_noxref_neg DIODENWX  AREA=2.88181e-10
+ PERIM=0.000160562
XD1_noxref N_GND!_D0_noxref_pos N_VDD!_D1_noxref_neg DIODENWX  AREA=2.8857e-10
+ PERIM=0.000161056
XD2_noxref N_GND!_D0_noxref_pos N_VDD!_D2_noxref_neg DIODENWX  AREA=2.88952e-10
+ PERIM=0.000161284
XD3_noxref N_GND!_D0_noxref_pos N_VDD!_D3_noxref_neg DIODENWX  AREA=2.89163e-10
+ PERIM=0.000161486
XD4_noxref N_GND!_D0_noxref_pos N_VDD!_D4_noxref_neg DIODENWX  AREA=2.89173e-10
+ PERIM=0.000161486
XD5_noxref N_GND!_D0_noxref_pos N_VDD!_D5_noxref_neg DIODENWX  AREA=2.88983e-10
+ PERIM=0.000161486
XD6_noxref N_GND!_D0_noxref_pos N_VDD!_D6_noxref_neg DIODENWX  AREA=2.8923e-10
+ PERIM=0.000161486
XXU77/MMN1 XU77/NET15 N_M66_XU77/MMN1_g N_GND!_XU77/MMN1_s N_GND!_D0_noxref_pos
+ NFET L=6.5e-08 W=8.5e-07 AD=3.434e-13 AS=2.0825e-13 PD=1.658e-06 PS=2.19e-06
+ NRD=0.475294 NRS=0.124706 M=1 NF=1 CNR_SWITCH=0 PCCRIT=0 PAR=1 PTWELL=0
+ SA=2.45e-07 SB=1.079e-06 SD=0 PANW1=0 PANW2=0 PANW3=0 PANW4=0 PANW5=0 PANW6=0
+ PANW7=1.1635e-14 PANW8=1.3e-14 PANW9=2.6e-14 PANW10=4.615e-15
XXU57/MMN4 XU57/NET18 N_M43_XU57/MMN4_g N_GND!_XU57/MMN4_s N_GND!_D0_noxref_pos
+ NFET L=6.5e-08 W=8.5e-07 AD=1.44925e-13 AS=1.5555e-13 PD=1.191e-06
+ PS=2.066e-06 NRD=0.200588 NRS=0.125882 M=1 NF=1 CNR_SWITCH=0 PCCRIT=0 PAR=1
+ PTWELL=0 SA=1.83e-07 SB=1.983e-06 SD=0 PANW1=0 PANW2=0 PANW3=0 PANW4=0 PANW5=0
+ PANW6=0 PANW7=1.1635e-14 PANW8=1.3e-14 PANW9=2.6e-14 PANW10=4.615e-15
XXU57/MMN3 N_M62_XU57/MMN3_d N_N37_XU57/MMN3_g XU57/NET18 N_GND!_D0_noxref_pos
+ NFET L=6.5e-08 W=8.5e-07 AD=1.122e-13 AS=1.44925e-13 PD=1.114e-06 PS=1.191e-06
+ NRD=0.150588 NRS=0.200588 M=1 NF=1 CNR_SWITCH=0 PCCRIT=0 PAR=1 PTWELL=0
+ SA=5.89e-07 SB=1.577e-06 SD=0 PANW1=0 PANW2=0 PANW3=0 PANW4=0 PANW5=0 PANW6=0
+ PANW7=1.1635e-14 PANW8=1.3e-14 PANW9=2.6e-14 PANW10=4.615e-15
XXU76/MMN1 XU76/NET15 N_M81_XU76/MMN1_g N_GND!_XU76/MMN1_s N_GND!_D0_noxref_pos
+ NFET L=6.5e-08 W=8.5e-07 AD=3.434e-13 AS=2.0825e-13 PD=1.658e-06 PS=2.19e-06
+ NRD=0.475294 NRS=0.124706 M=1 NF=1 CNR_SWITCH=0 PCCRIT=0 PAR=1 PTWELL=0
+ SA=2.45e-07 SB=1.079e-06 SD=0 PANW1=0 PANW2=0 PANW3=0 PANW4=0 PANW5=0 PANW6=0
+ PANW7=1.1635e-14 PANW8=1.3e-14 PANW9=2.6e-14 PANW10=4.615e-15
XXU77/MMN0 N_M81_XU77/MMN0_d N_N41_XU77/MMN0_g XU77/NET15 N_GND!_D0_noxref_pos
+ NFET L=6.5e-08 W=8.5e-07 AD=1.751e-13 AS=3.434e-13 PD=2.112e-06 PS=1.658e-06
+ NRD=0.143529 NRS=0.475294 M=1 NF=1 CNR_SWITCH=0 PCCRIT=0 PAR=1 PTWELL=0
+ SA=1.118e-06 SB=2.06e-07 SD=0 PANW1=0 PANW2=0 PANW3=0 PANW4=0 PANW5=0 PANW6=0
+ PANW7=1.1635e-14 PANW8=1.3e-14 PANW9=2.6e-14 PANW10=4.615e-15
XXU57/MMN2 N_M62_XU57/MMN3_d N_XU57/NET21_XU57/MMN2_g N_GND!_XU57/MMN2_s
+ N_GND!_D0_noxref_pos NFET L=6.5e-08 W=8.5e-07 AD=1.122e-13 AS=2.6605e-13
+ PD=1.114e-06 PS=1.476e-06 NRD=0.16 NRS=0.544706 M=1 NF=1 CNR_SWITCH=0 PCCRIT=0
+ PAR=1 PTWELL=0 SA=9.18e-07 SB=1.248e-06 SD=0 PANW1=0 PANW2=0 PANW3=0 PANW4=0
+ PANW5=0 PANW6=0 PANW7=1.1635e-14 PANW8=1.3e-14 PANW9=2.6e-14 PANW10=4.615e-15
XXU75/MMN1 N_XU75/NET21_XU75/MMN1_d N_M79_XU75/MMN1_g N_GND!_XU75/MMN1_s
+ N_GND!_D0_noxref_pos NFET L=6.5e-08 W=8.5e-07 AD=1.04975e-13 AS=2.0825e-13
+ PD=1.097e-06 PS=2.19e-06 NRD=0.141176 NRS=0.124706 M=1 NF=1 CNR_SWITCH=0
+ PCCRIT=0 PAR=1 PTWELL=0 SA=2.45e-07 SB=1.921e-06 SD=0 PANW1=0 PANW2=0 PANW3=0
+ PANW4=0 PANW5=0 PANW6=0 PANW7=1.1635e-14 PANW8=1.3e-14 PANW9=2.6e-14
+ PANW10=4.615e-15
XXU86/MMN1 XU86/NET15 N_M85_XU86/MMN1_g N_GND!_XU86/MMN1_s N_GND!_D0_noxref_pos
+ NFET L=6.5e-08 W=8.5e-07 AD=3.434e-13 AS=2.0825e-13 PD=1.658e-06 PS=2.19e-06
+ NRD=0.475294 NRS=0.124706 M=1 NF=1 CNR_SWITCH=0 PCCRIT=0 PAR=1 PTWELL=0
+ SA=2.45e-07 SB=1.079e-06 SD=0 PANW1=0 PANW2=0 PANW3=0 PANW4=0 PANW5=0 PANW6=0
+ PANW7=1.1635e-14 PANW8=1.3e-14 PANW9=2.6e-14 PANW10=4.615e-15
XXI_4/MMN0 N_N19_XI_4/MMN0_d N_N18_XI_4/MMN0_g N_GND!_XI_4/MMN0_s
+ N_GND!_D0_noxref_pos NFET L=6.5e-08 W=8.5e-07 AD=4.4115e-13 AS=2.0825e-13
+ PD=2.738e-06 PS=2.19e-06 NRD=0.447059 NRS=0.124706 M=1 NF=1 CNR_SWITCH=0
+ PCCRIT=0 PAR=1 PTWELL=0 SA=2.45e-07 SB=5.19e-07 SD=0 PANW1=0 PANW2=0 PANW3=0
+ PANW4=0 PANW5=0 PANW6=0 PANW7=1.1635e-14 PANW8=1.3e-14 PANW9=2.6e-14
+ PANW10=4.615e-15
XXU75/MMN0 N_XU75/NET21_XU75/MMN1_d N_N29_XU75/MMN0_g N_GND!_XU75/MMN0_s
+ N_GND!_D0_noxref_pos NFET L=6.5e-08 W=8.5e-07 AD=1.04975e-13 AS=2.6605e-13
+ PD=1.097e-06 PS=1.476e-06 NRD=0.149412 NRS=0.191765 M=1 NF=1 CNR_SWITCH=0
+ PCCRIT=0 PAR=1 PTWELL=0 SA=5.57e-07 SB=1.609e-06 SD=0 PANW1=0 PANW2=0 PANW3=0
+ PANW4=0 PANW5=0 PANW6=0 PANW7=1.1635e-14 PANW8=1.3e-14 PANW9=2.6e-14
+ PANW10=4.615e-15
XXU89/MMN0 N_M86_XU89/MMN0_d N_N13_XU89/MMN0_g N_GND!_XU89/MMN0_s
+ N_GND!_D0_noxref_pos NFET L=6.5e-08 W=8.5e-07 AD=4.4115e-13 AS=2.0825e-13
+ PD=2.738e-06 PS=2.19e-06 NRD=0.447059 NRS=0.124706 M=1 NF=1 CNR_SWITCH=0
+ PCCRIT=0 PAR=1 PTWELL=0 SA=5.19e-07 SB=2.45e-07 SD=0 PANW1=0 PANW2=0 PANW3=0
+ PANW4=0 PANW5=0 PANW6=0 PANW7=1.1635e-14 PANW8=1.3e-14 PANW9=2.6e-14
+ PANW10=4.615e-15
XXU57/MMN0 N_XU57/NET21_XU57/MMN0_d N_M43_XU57/MMN0_g N_GND!_XU57/MMN2_s
+ N_GND!_D0_noxref_pos NFET L=6.5e-08 W=8.5e-07 AD=1.04975e-13 AS=2.6605e-13
+ PD=1.097e-06 PS=1.476e-06 NRD=0.149412 NRS=0.191765 M=1 NF=1 CNR_SWITCH=0
+ PCCRIT=0 PAR=1 PTWELL=0 SA=1.609e-06 SB=5.57e-07 SD=0 PANW1=0 PANW2=0 PANW3=0
+ PANW4=0 PANW5=0 PANW6=0 PANW7=1.1635e-14 PANW8=1.3e-14 PANW9=2.6e-14
+ PANW10=4.615e-15
XXU76/MMN0 N_M79_XU76/MMN0_d N_M80_XU76/MMN0_g XU76/NET15 N_GND!_D0_noxref_pos
+ NFET L=6.5e-08 W=8.5e-07 AD=1.751e-13 AS=3.434e-13 PD=2.112e-06 PS=1.658e-06
+ NRD=0.143529 NRS=0.475294 M=1 NF=1 CNR_SWITCH=0 PCCRIT=0 PAR=1 PTWELL=0
+ SA=1.118e-06 SB=2.06e-07 SD=0 PANW1=0 PANW2=0 PANW3=0 PANW4=0 PANW5=0 PANW6=0
+ PANW7=1.1635e-14 PANW8=1.3e-14 PANW9=2.6e-14 PANW10=4.615e-15
XXU57/MMN1 N_XU57/NET21_XU57/MMN0_d N_N37_XU57/MMN1_g N_GND!_XU57/MMN1_s
+ N_GND!_D0_noxref_pos NFET L=6.5e-08 W=8.5e-07 AD=1.04975e-13 AS=2.0825e-13
+ PD=1.097e-06 PS=2.19e-06 NRD=0.141176 NRS=0.124706 M=1 NF=1 CNR_SWITCH=0
+ PCCRIT=0 PAR=1 PTWELL=0 SA=1.921e-06 SB=2.45e-07 SD=0 PANW1=0 PANW2=0 PANW3=0
+ PANW4=0 PANW5=0 PANW6=0 PANW7=1.1635e-14 PANW8=1.3e-14 PANW9=2.6e-14
+ PANW10=4.615e-15
XXU86/MMN0 N_N18_XU86/MMN0_d N_N13_XU86/MMN0_g XU86/NET15 N_GND!_D0_noxref_pos
+ NFET L=6.5e-08 W=8.5e-07 AD=1.751e-13 AS=3.434e-13 PD=2.112e-06 PS=1.658e-06
+ NRD=0.143529 NRS=0.475294 M=1 NF=1 CNR_SWITCH=0 PCCRIT=0 PAR=1 PTWELL=0
+ SA=1.118e-06 SB=2.06e-07 SD=0 PANW1=0 PANW2=0 PANW3=0 PANW4=0 PANW5=0 PANW6=0
+ PANW7=1.1635e-14 PANW8=1.3e-14 PANW9=2.6e-14 PANW10=4.615e-15
XXU75/MMN2 N_M78_XU75/MMN2_d N_XU75/NET21_XU75/MMN2_g N_GND!_XU75/MMN0_s
+ N_GND!_D0_noxref_pos NFET L=6.5e-08 W=8.5e-07 AD=1.122e-13 AS=2.6605e-13
+ PD=1.114e-06 PS=1.476e-06 NRD=0.16 NRS=0.544706 M=1 NF=1 CNR_SWITCH=0 PCCRIT=0
+ PAR=1 PTWELL=0 SA=1.248e-06 SB=9.18e-07 SD=0 PANW1=0 PANW2=0 PANW3=0 PANW4=0
+ PANW5=0 PANW6=0 PANW7=1.1635e-14 PANW8=1.3e-14 PANW9=2.6e-14 PANW10=4.615e-15
XXU75/MMN3 N_M78_XU75/MMN2_d N_M79_XU75/MMN3_g XU75/NET18 N_GND!_D0_noxref_pos
+ NFET L=6.5e-08 W=8.5e-07 AD=1.122e-13 AS=1.44925e-13 PD=1.114e-06 PS=1.191e-06
+ NRD=0.150588 NRS=0.200588 M=1 NF=1 CNR_SWITCH=0 PCCRIT=0 PAR=1 PTWELL=0
+ SA=1.577e-06 SB=5.89e-07 SD=0 PANW1=0 PANW2=0 PANW3=0 PANW4=0 PANW5=0 PANW6=0
+ PANW7=1.1635e-14 PANW8=1.3e-14 PANW9=2.6e-14 PANW10=4.615e-15
XXU75/MMN4 XU75/NET18 N_N29_XU75/MMN4_g N_GND!_XU75/MMN4_s N_GND!_D0_noxref_pos
+ NFET L=6.5e-08 W=8.5e-07 AD=1.44925e-13 AS=1.5555e-13 PD=1.191e-06
+ PS=2.066e-06 NRD=0.200588 NRS=0.125882 M=1 NF=1 CNR_SWITCH=0 PCCRIT=0 PAR=1
+ PTWELL=0 SA=1.983e-06 SB=1.83e-07 SD=0 PANW1=0 PANW2=0 PANW3=0 PANW4=0 PANW5=0
+ PANW6=0 PANW7=1.1635e-14 PANW8=1.3e-14 PANW9=2.6e-14 PANW10=4.615e-15
XXU55/MMN0 N_M63_XU55/MMN0_d N_M64_XU55/MMN0_g N_GND!_XU55/MMN0_s
+ N_GND!_D0_noxref_pos NFET L=6.5e-08 W=8.5e-07 AD=4.4115e-13 AS=2.0825e-13
+ PD=2.738e-06 PS=2.19e-06 NRD=0.447059 NRS=0.124706 M=1 NF=1 CNR_SWITCH=0
+ PCCRIT=0 PAR=1 PTWELL=0 SA=5.19e-07 SB=2.45e-07 SD=0 PANW1=0 PANW2=0 PANW3=0
+ PANW4=0 PANW5=0 PANW6=0 PANW7=1.1635e-14 PANW8=1.3e-14 PANW9=2.6e-14
+ PANW10=4.615e-15
XXU88/MMN1 XU88/NET15 N_M86_XU88/MMN1_g N_GND!_XU88/MMN1_s N_GND!_D0_noxref_pos
+ NFET L=6.5e-08 W=8.5e-07 AD=3.434e-13 AS=2.0825e-13 PD=1.658e-06 PS=2.19e-06
+ NRD=0.475294 NRS=0.124706 M=1 NF=1 CNR_SWITCH=0 PCCRIT=0 PAR=1 PTWELL=0
+ SA=2.45e-07 SB=1.079e-06 SD=0 PANW1=0 PANW2=0 PANW3=0 PANW4=0 PANW5=0 PANW6=0
+ PANW7=1.1635e-14 PANW8=1.3e-14 PANW9=2.6e-14 PANW10=4.615e-15
XXU62/MMN0 N_M70_XU62/MMN0_d N_M71_XU62/MMN0_g XU62/NET15 N_GND!_D0_noxref_pos
+ NFET L=6.5e-08 W=8.5e-07 AD=2.0655e-13 AS=1.82325e-13 PD=2.186e-06
+ PS=1.279e-06 NRD=0.118824 NRS=0.252353 M=1 NF=1 CNR_SWITCH=0 PCCRIT=0 PAR=1
+ PTWELL=0 SA=2.43e-07 SB=2.121e-06 SD=0 PANW1=0 PANW2=0 PANW3=0 PANW4=0 PANW5=0
+ PANW6=0 PANW7=1.1635e-14 PANW8=1.3e-14 PANW9=2.6e-14 PANW10=4.615e-15
XXU54/MMN2 N_M61_XU54/MMN2_d N_M63_XU54/MMN2_g XU54/NET14 N_GND!_D0_noxref_pos
+ NFET L=6.5e-08 W=8.5e-07 AD=1.751e-13 AS=3.434e-13 PD=2.112e-06 PS=1.658e-06
+ NRD=0.143529 NRS=0.475294 M=1 NF=1 CNR_SWITCH=0 PCCRIT=0 PAR=1 PTWELL=0
+ SA=2.06e-07 SB=2.158e-06 SD=0 PANW1=0 PANW2=0 PANW3=0 PANW4=0 PANW5=0 PANW6=0
+ PANW7=1.1635e-14 PANW8=1.3e-14 PANW9=2.6e-14 PANW10=4.615e-15
XXU80/MMN0 N_N40_XU80/MMN0_d N_M82_XU80/MMN0_g N_GND!_XU80/MMN0_s
+ N_GND!_D0_noxref_pos NFET L=6.5e-08 W=8.5e-07 AD=4.4115e-13 AS=2.0825e-13
+ PD=2.738e-06 PS=2.19e-06 NRD=0.447059 NRS=0.124706 M=1 NF=1 CNR_SWITCH=0
+ PCCRIT=0 PAR=1 PTWELL=0 SA=5.19e-07 SB=2.45e-07 SD=0 PANW1=0 PANW2=0 PANW3=0
+ PANW4=0 PANW5=0 PANW6=0 PANW7=1.1635e-14 PANW8=1.3e-14 PANW9=2.6e-14
+ PANW10=4.615e-15
XXU62/MMN1 XU62/NET15 N_N37_XU62/MMN1_g N_GND!_XU62/MMN1_s N_GND!_D0_noxref_pos
+ NFET L=6.5e-08 W=8.5e-07 AD=1.82325e-13 AS=2.05275e-13 PD=1.279e-06
+ PS=1.333e-06 NRD=0.252353 NRS=0.443529 M=1 NF=1 CNR_SWITCH=0 PCCRIT=0 PAR=1
+ PTWELL=0 SA=7.37e-07 SB=1.627e-06 SD=0 PANW1=0 PANW2=0 PANW3=0 PANW4=0 PANW5=0
+ PANW6=0 PANW7=1.1635e-14 PANW8=1.3e-14 PANW9=2.6e-14 PANW10=4.615e-15
XXU87/MMN0 N_M85_XU87/MMN0_d N_N17_XU87/MMN0_g N_GND!_XU87/MMN0_s
+ N_GND!_D0_noxref_pos NFET L=6.5e-08 W=8.5e-07 AD=4.4115e-13 AS=2.0825e-13
+ PD=2.738e-06 PS=2.19e-06 NRD=0.447059 NRS=0.124706 M=1 NF=1 CNR_SWITCH=0
+ PCCRIT=0 PAR=1 PTWELL=0 SA=5.19e-07 SB=2.45e-07 SD=0 PANW1=0 PANW2=0 PANW3=0
+ PANW4=0 PANW5=0 PANW6=0 PANW7=1.1635e-14 PANW8=1.3e-14 PANW9=2.6e-14
+ PANW10=4.615e-15
XXU88/MMN0 N_N15_XU88/MMN0_d N_N17_XU88/MMN0_g XU88/NET15 N_GND!_D0_noxref_pos
+ NFET L=6.5e-08 W=8.5e-07 AD=1.751e-13 AS=3.434e-13 PD=2.112e-06 PS=1.658e-06
+ NRD=0.143529 NRS=0.475294 M=1 NF=1 CNR_SWITCH=0 PCCRIT=0 PAR=1 PTWELL=0
+ SA=1.118e-06 SB=2.06e-07 SD=0 PANW1=0 PANW2=0 PANW3=0 PANW4=0 PANW5=0 PANW6=0
+ PANW7=1.1635e-14 PANW8=1.3e-14 PANW9=2.6e-14 PANW10=4.615e-15
XXU53/MMN0 N_M60_XU53/MMN0_d N_M61_XU53/MMN0_g N_GND!_XU53/MMN0_s
+ N_GND!_D0_noxref_pos NFET L=6.5e-08 W=8.5e-07 AD=4.4115e-13 AS=2.0825e-13
+ PD=2.738e-06 PS=2.19e-06 NRD=0.447059 NRS=0.124706 M=1 NF=1 CNR_SWITCH=0
+ PCCRIT=0 PAR=1 PTWELL=0 SA=2.45e-07 SB=5.19e-07 SD=0 PANW1=0 PANW2=0 PANW3=0
+ PANW4=0 PANW5=0 PANW6=0 PANW7=1.1635e-14 PANW8=1.3e-14 PANW9=2.6e-14
+ PANW10=4.615e-15
XXU62/MMN3 XU62/NET14 N_N41_XU62/MMN3_g N_GND!_XU62/MMN1_s N_GND!_D0_noxref_pos
+ NFET L=6.5e-08 W=8.5e-07 AD=3.434e-13 AS=2.05275e-13 PD=1.658e-06 PS=1.333e-06
+ NRD=0.475294 NRS=0.124706 M=1 NF=1 CNR_SWITCH=0 PCCRIT=0 PAR=1 PTWELL=0
+ SA=1.285e-06 SB=1.079e-06 SD=0 PANW1=0 PANW2=0 PANW3=0 PANW4=0 PANW5=0 PANW6=0
+ PANW7=1.1635e-14 PANW8=1.3e-14 PANW9=2.6e-14 PANW10=4.615e-15
XXU54/MMN3 XU54/NET14 N_N41_XU54/MMN3_g N_GND!_XU54/MMN3_s N_GND!_D0_noxref_pos
+ NFET L=6.5e-08 W=8.5e-07 AD=3.434e-13 AS=2.05275e-13 PD=1.658e-06 PS=1.333e-06
+ NRD=0.475294 NRS=0.124706 M=1 NF=1 CNR_SWITCH=0 PCCRIT=0 PAR=1 PTWELL=0
+ SA=1.079e-06 SB=1.285e-06 SD=0 PANW1=0 PANW2=0 PANW3=0 PANW4=0 PANW5=0 PANW6=0
+ PANW7=1.1635e-14 PANW8=1.3e-14 PANW9=2.6e-14 PANW10=4.615e-15
XXU67/MMN1 N_M71_XU67/MMN1_d N_N29_XU67/MMN1_g N_GND!_XU67/MMN1_s
+ N_GND!_D0_noxref_pos NFET L=6.5e-08 W=8.5e-07 AD=3.434e-13 AS=1.751e-13
+ PD=1.658e-06 PS=2.112e-06 NRD=0.503529 NRS=0.128235 M=1 NF=1 CNR_SWITCH=0
+ PCCRIT=0 PAR=1 PTWELL=0 SA=2.06e-07 SB=1.118e-06 SD=0 PANW1=0 PANW2=0 PANW3=0
+ PANW4=0 PANW5=0 PANW6=0 PANW7=1.1635e-14 PANW8=1.3e-14 PANW9=2.6e-14
+ PANW10=4.615e-15
XXU54/MMN1 XU54/NET15 N_N29_XU54/MMN1_g N_GND!_XU54/MMN3_s N_GND!_D0_noxref_pos
+ NFET L=6.5e-08 W=8.5e-07 AD=1.82325e-13 AS=2.05275e-13 PD=1.279e-06
+ PS=1.333e-06 NRD=0.252353 NRS=0.443529 M=1 NF=1 CNR_SWITCH=0 PCCRIT=0 PAR=1
+ PTWELL=0 SA=1.627e-06 SB=7.37e-07 SD=0 PANW1=0 PANW2=0 PANW3=0 PANW4=0 PANW5=0
+ PANW6=0 PANW7=1.1635e-14 PANW8=1.3e-14 PANW9=2.6e-14 PANW10=4.615e-15
XXU62/MMN2 N_M70_XU62/MMN2_d N_M72_XU62/MMN2_g XU62/NET14 N_GND!_D0_noxref_pos
+ NFET L=6.5e-08 W=8.5e-07 AD=1.751e-13 AS=3.434e-13 PD=2.112e-06 PS=1.658e-06
+ NRD=0.143529 NRS=0.475294 M=1 NF=1 CNR_SWITCH=0 PCCRIT=0 PAR=1 PTWELL=0
+ SA=2.158e-06 SB=2.06e-07 SD=0 PANW1=0 PANW2=0 PANW3=0 PANW4=0 PANW5=0 PANW6=0
+ PANW7=1.1635e-14 PANW8=1.3e-14 PANW9=2.6e-14 PANW10=4.615e-15
XXU67/MMN0 N_M71_XU67/MMN1_d N_M40_XU67/MMN0_g N_GND!_XU67/MMN0_s
+ N_GND!_D0_noxref_pos NFET L=6.5e-08 W=8.5e-07 AD=3.434e-13 AS=2.0825e-13
+ PD=1.658e-06 PS=2.19e-06 NRD=0.447059 NRS=0.124706 M=1 NF=1 CNR_SWITCH=0
+ PCCRIT=0 PAR=1 PTWELL=0 SA=1.079e-06 SB=2.45e-07 SD=0 PANW1=0 PANW2=0 PANW3=0
+ PANW4=0 PANW5=0 PANW6=0 PANW7=1.1635e-14 PANW8=1.3e-14 PANW9=2.6e-14
+ PANW10=4.615e-15
XXU54/MMN0 N_M61_XU54/MMN0_d N_M62_XU54/MMN0_g XU54/NET15 N_GND!_D0_noxref_pos
+ NFET L=6.5e-08 W=8.5e-07 AD=2.0655e-13 AS=1.82325e-13 PD=2.186e-06
+ PS=1.279e-06 NRD=0.118824 NRS=0.252353 M=1 NF=1 CNR_SWITCH=0 PCCRIT=0 PAR=1
+ PTWELL=0 SA=2.121e-06 SB=2.43e-07 SD=0 PANW1=0 PANW2=0 PANW3=0 PANW4=0 PANW5=0
+ PANW6=0 PANW7=1.1635e-14 PANW8=1.3e-14 PANW9=2.6e-14 PANW10=4.615e-15
XXU48/MMN0 N_M56_XU48/MMN0_d N_N41_XU48/MMN0_g XU48/NET15 N_GND!_D0_noxref_pos
+ NFET L=6.5e-08 W=8.5e-07 AD=1.751e-13 AS=3.434e-13 PD=2.112e-06 PS=1.658e-06
+ NRD=0.143529 NRS=0.475294 M=1 NF=1 CNR_SWITCH=0 PCCRIT=0 PAR=1 PTWELL=0
+ SA=2.06e-07 SB=1.118e-06 SD=0 PANW1=0 PANW2=0 PANW3=0 PANW4=0 PANW5=0 PANW6=0
+ PANW7=1.1635e-14 PANW8=1.3e-14 PANW9=2.6e-14 PANW10=4.615e-15
XXI_2/MMN0 N_U3#2FU1#2FZ_0_XI_2/MMN0_d N_N15_XI_2/MMN0_g N_GND!_XI_2/MMN0_s
+ N_GND!_D0_noxref_pos NFET L=6.5e-08 W=8.5e-07 AD=4.4115e-13 AS=2.0825e-13
+ PD=2.738e-06 PS=2.19e-06 NRD=0.447059 NRS=0.124706 M=1 NF=1 CNR_SWITCH=0
+ PCCRIT=0 PAR=1 PTWELL=0 SA=2.45e-07 SB=5.19e-07 SD=0 PANW1=0 PANW2=0 PANW3=0
+ PANW4=0 PANW5=0 PANW6=0 PANW7=1.1635e-14 PANW8=1.3e-14 PANW9=2.6e-14
+ PANW10=4.615e-15
XXI_11/MMN0 N_N41_XI_11/MMN0_d N_N40_XI_11/MMN0_g N_GND!_XI_11/MMN0_s
+ N_GND!_D0_noxref_pos NFET L=6.5e-08 W=8.5e-07 AD=4.4115e-13 AS=2.0825e-13
+ PD=2.738e-06 PS=2.19e-06 NRD=0.447059 NRS=0.124706 M=1 NF=1 CNR_SWITCH=0
+ PCCRIT=0 PAR=1 PTWELL=0 SA=5.19e-07 SB=2.45e-07 SD=0 PANW1=0 PANW2=0 PANW3=0
+ PANW4=0 PANW5=0 PANW6=0 PANW7=1.1635e-14 PANW8=1.3e-14 PANW9=2.6e-14
+ PANW10=4.615e-15
XXU48/MMN1 XU48/NET15 N_M57_XU48/MMN1_g N_GND!_XU48/MMN1_s N_GND!_D0_noxref_pos
+ NFET L=6.5e-08 W=8.5e-07 AD=3.434e-13 AS=2.0825e-13 PD=1.658e-06 PS=2.19e-06
+ NRD=0.475294 NRS=0.124706 M=1 NF=1 CNR_SWITCH=0 PCCRIT=0 PAR=1 PTWELL=0
+ SA=1.079e-06 SB=2.45e-07 SD=0 PANW1=0 PANW2=0 PANW3=0 PANW4=0 PANW5=0 PANW6=0
+ PANW7=1.1635e-14 PANW8=1.3e-14 PANW9=2.6e-14 PANW10=4.615e-15
XXU56/MMN2 N_M64_XU56/MMN2_d N_M66_XU56/MMN2_g XU56/NET14 N_GND!_D0_noxref_pos
+ NFET L=6.5e-08 W=8.5e-07 AD=1.751e-13 AS=3.434e-13 PD=2.112e-06 PS=1.658e-06
+ NRD=0.143529 NRS=0.475294 M=1 NF=1 CNR_SWITCH=0 PCCRIT=0 PAR=1 PTWELL=0
+ SA=2.06e-07 SB=2.158e-06 SD=0 PANW1=0 PANW2=0 PANW3=0 PANW4=0 PANW5=0 PANW6=0
+ PANW7=1.1635e-14 PANW8=1.3e-14 PANW9=2.6e-14 PANW10=4.615e-15
XXU81/MMN0 N_M82_XU81/MMN0_d N_N39_XU81/MMN0_g N_GND!_XU81/MMN0_s
+ N_GND!_D0_noxref_pos NFET L=6.5e-08 W=8.5e-07 AD=3.434e-13 AS=2.0825e-13
+ PD=1.658e-06 PS=2.19e-06 NRD=0.447059 NRS=0.124706 M=1 NF=1 CNR_SWITCH=0
+ PCCRIT=0 PAR=1 PTWELL=0 SA=2.45e-07 SB=1.079e-06 SD=0 PANW1=0 PANW2=0 PANW3=0
+ PANW4=0 PANW5=0 PANW6=0 PANW7=1.1635e-14 PANW8=1.3e-14 PANW9=2.6e-14
+ PANW10=4.615e-15
XXU74/MMN0 N_M52_XU74/MMN0_d N_N13_XU74/MMN0_g N_GND!_XU74/MMN0_s
+ N_GND!_D0_noxref_pos NFET L=6.5e-08 W=8.5e-07 AD=3.434e-13 AS=2.0825e-13
+ PD=1.658e-06 PS=2.19e-06 NRD=0.447059 NRS=0.124706 M=1 NF=1 CNR_SWITCH=0
+ PCCRIT=0 PAR=1 PTWELL=0 SA=2.45e-07 SB=1.079e-06 SD=0 PANW1=0 PANW2=0 PANW3=0
+ PANW4=0 PANW5=0 PANW6=0 PANW7=1.1635e-14 PANW8=1.3e-14 PANW9=2.6e-14
+ PANW10=4.615e-15
XXU63/MMN0 N_M72_XU63/MMN0_d N_M73_XU63/MMN0_g N_GND!_XU63/MMN0_s
+ N_GND!_D0_noxref_pos NFET L=6.5e-08 W=8.5e-07 AD=4.4115e-13 AS=2.0825e-13
+ PD=2.738e-06 PS=2.19e-06 NRD=0.447059 NRS=0.124706 M=1 NF=1 CNR_SWITCH=0
+ PCCRIT=0 PAR=1 PTWELL=0 SA=5.19e-07 SB=2.45e-07 SD=0 PANW1=0 PANW2=0 PANW3=0
+ PANW4=0 PANW5=0 PANW6=0 PANW7=1.1635e-14 PANW8=1.3e-14 PANW9=2.6e-14
+ PANW10=4.615e-15
XXU56/MMN3 XU56/NET14 N_N29_XU56/MMN3_g N_GND!_XU56/MMN3_s N_GND!_D0_noxref_pos
+ NFET L=6.5e-08 W=8.5e-07 AD=3.434e-13 AS=2.05275e-13 PD=1.658e-06 PS=1.333e-06
+ NRD=0.475294 NRS=0.124706 M=1 NF=1 CNR_SWITCH=0 PCCRIT=0 PAR=1 PTWELL=0
+ SA=1.079e-06 SB=1.285e-06 SD=0 PANW1=0 PANW2=0 PANW3=0 PANW4=0 PANW5=0 PANW6=0
+ PANW7=1.1635e-14 PANW8=1.3e-14 PANW9=2.6e-14 PANW10=4.615e-15
XXU81/MMN1 N_M82_XU81/MMN0_d N_N38_XU81/MMN1_g N_GND!_XU81/MMN1_s
+ N_GND!_D0_noxref_pos NFET L=6.5e-08 W=8.5e-07 AD=3.434e-13 AS=1.751e-13
+ PD=1.658e-06 PS=2.112e-06 NRD=0.503529 NRS=0.128235 M=1 NF=1 CNR_SWITCH=0
+ PCCRIT=0 PAR=1 PTWELL=0 SA=1.118e-06 SB=2.06e-07 SD=0 PANW1=0 PANW2=0 PANW3=0
+ PANW4=0 PANW5=0 PANW6=0 PANW7=1.1635e-14 PANW8=1.3e-14 PANW9=2.6e-14
+ PANW10=4.615e-15
XXU74/MMN1 N_M52_XU74/MMN0_d N_N17_XU74/MMN1_g N_GND!_XU74/MMN1_s
+ N_GND!_D0_noxref_pos NFET L=6.5e-08 W=8.5e-07 AD=3.434e-13 AS=1.751e-13
+ PD=1.658e-06 PS=2.112e-06 NRD=0.503529 NRS=0.128235 M=1 NF=1 CNR_SWITCH=0
+ PCCRIT=0 PAR=1 PTWELL=0 SA=1.118e-06 SB=2.06e-07 SD=0 PANW1=0 PANW2=0 PANW3=0
+ PANW4=0 PANW5=0 PANW6=0 PANW7=1.1635e-14 PANW8=1.3e-14 PANW9=2.6e-14
+ PANW10=4.615e-15
XXU73/MMN0 N_M74_XU73/MMN0_d N_M78_XU73/MMN0_g XU73/NET15 N_GND!_D0_noxref_pos
+ NFET L=6.5e-08 W=8.5e-07 AD=2.0655e-13 AS=1.82325e-13 PD=2.186e-06
+ PS=1.279e-06 NRD=0.118824 NRS=0.252353 M=1 NF=1 CNR_SWITCH=0 PCCRIT=0 PAR=1
+ PTWELL=0 SA=2.43e-07 SB=2.121e-06 SD=0 PANW1=0 PANW2=0 PANW3=0 PANW4=0 PANW5=0
+ PANW6=0 PANW7=1.1635e-14 PANW8=1.3e-14 PANW9=2.6e-14 PANW10=4.615e-15
XXU72/MMN0 N_M76_XU72/MMN0_d N_U3#2FU1#2FZ_0_XU72/MMN0_g N_GND!_XU72/MMN0_s
+ N_GND!_D0_noxref_pos NFET L=6.5e-08 W=8.5e-07 AD=4.4115e-13 AS=2.0825e-13
+ PD=2.738e-06 PS=2.19e-06 NRD=0.447059 NRS=0.124706 M=1 NF=1 CNR_SWITCH=0
+ PCCRIT=0 PAR=1 PTWELL=0 SA=2.45e-07 SB=5.19e-07 SD=0 PANW1=0 PANW2=0 PANW3=0
+ PANW4=0 PANW5=0 PANW6=0 PANW7=1.1635e-14 PANW8=1.3e-14 PANW9=2.6e-14
+ PANW10=4.615e-15
XXU56/MMN1 XU56/NET15 N_N55_XU56/MMN1_g N_GND!_XU56/MMN3_s N_GND!_D0_noxref_pos
+ NFET L=6.5e-08 W=8.5e-07 AD=1.82325e-13 AS=2.05275e-13 PD=1.279e-06
+ PS=1.333e-06 NRD=0.252353 NRS=0.443529 M=1 NF=1 CNR_SWITCH=0 PCCRIT=0 PAR=1
+ PTWELL=0 SA=1.627e-06 SB=7.37e-07 SD=0 PANW1=0 PANW2=0 PANW3=0 PANW4=0 PANW5=0
+ PANW6=0 PANW7=1.1635e-14 PANW8=1.3e-14 PANW9=2.6e-14 PANW10=4.615e-15
XXU73/MMN1 XU73/NET15 N_N19_XU73/MMN1_g N_GND!_XU73/MMN1_s N_GND!_D0_noxref_pos
+ NFET L=6.5e-08 W=8.5e-07 AD=1.82325e-13 AS=2.05275e-13 PD=1.279e-06
+ PS=1.333e-06 NRD=0.252353 NRS=0.443529 M=1 NF=1 CNR_SWITCH=0 PCCRIT=0 PAR=1
+ PTWELL=0 SA=7.37e-07 SB=1.627e-06 SD=0 PANW1=0 PANW2=0 PANW3=0 PANW4=0 PANW5=0
+ PANW6=0 PANW7=1.1635e-14 PANW8=1.3e-14 PANW9=2.6e-14 PANW10=4.615e-15
XXU61/MMN0 N_M69_XU61/MMN0_d N_M70_XU61/MMN0_g N_GND!_XU61/MMN0_s
+ N_GND!_D0_noxref_pos NFET L=6.5e-08 W=8.5e-07 AD=4.4115e-13 AS=2.0825e-13
+ PD=2.738e-06 PS=2.19e-06 NRD=0.447059 NRS=0.124706 M=1 NF=1 CNR_SWITCH=0
+ PCCRIT=0 PAR=1 PTWELL=0 SA=2.45e-07 SB=5.19e-07 SD=0 PANW1=0 PANW2=0 PANW3=0
+ PANW4=0 PANW5=0 PANW6=0 PANW7=1.1635e-14 PANW8=1.3e-14 PANW9=2.6e-14
+ PANW10=4.615e-15
XXU56/MMN0 N_M64_XU56/MMN0_d N_M65_XU56/MMN0_g XU56/NET15 N_GND!_D0_noxref_pos
+ NFET L=6.5e-08 W=8.5e-07 AD=2.0655e-13 AS=1.82325e-13 PD=2.186e-06
+ PS=1.279e-06 NRD=0.118824 NRS=0.252353 M=1 NF=1 CNR_SWITCH=0 PCCRIT=0 PAR=1
+ PTWELL=0 SA=2.121e-06 SB=2.43e-07 SD=0 PANW1=0 PANW2=0 PANW3=0 PANW4=0 PANW5=0
+ PANW6=0 PANW7=1.1635e-14 PANW8=1.3e-14 PANW9=2.6e-14 PANW10=4.615e-15
XXU64/MMN2 N_M73_XU64/MMN2_d N_N48_XU64/MMN2_g XU64/NET14 N_GND!_D0_noxref_pos
+ NFET L=6.5e-08 W=8.5e-07 AD=1.751e-13 AS=3.434e-13 PD=2.112e-06 PS=1.658e-06
+ NRD=0.143529 NRS=0.475294 M=1 NF=1 CNR_SWITCH=0 PCCRIT=0 PAR=1 PTWELL=0
+ SA=2.06e-07 SB=2.158e-06 SD=0 PANW1=0 PANW2=0 PANW3=0 PANW4=0 PANW5=0 PANW6=0
+ PANW7=1.1635e-14 PANW8=1.3e-14 PANW9=2.6e-14 PANW10=4.615e-15
XXU73/MMN3 XU73/NET14 N_M52_XU73/MMN3_g N_GND!_XU73/MMN1_s N_GND!_D0_noxref_pos
+ NFET L=6.5e-08 W=8.5e-07 AD=3.434e-13 AS=2.05275e-13 PD=1.658e-06 PS=1.333e-06
+ NRD=0.475294 NRS=0.124706 M=1 NF=1 CNR_SWITCH=0 PCCRIT=0 PAR=1 PTWELL=0
+ SA=1.285e-06 SB=1.079e-06 SD=0 PANW1=0 PANW2=0 PANW3=0 PANW4=0 PANW5=0 PANW6=0
+ PANW7=1.1635e-14 PANW8=1.3e-14 PANW9=2.6e-14 PANW10=4.615e-15
XXU64/MMN3 XU64/NET14 N_N29_XU64/MMN3_g N_GND!_XU64/MMN3_s N_GND!_D0_noxref_pos
+ NFET L=6.5e-08 W=8.5e-07 AD=3.434e-13 AS=2.05275e-13 PD=1.658e-06 PS=1.333e-06
+ NRD=0.475294 NRS=0.124706 M=1 NF=1 CNR_SWITCH=0 PCCRIT=0 PAR=1 PTWELL=0
+ SA=1.079e-06 SB=1.285e-06 SD=0 PANW1=0 PANW2=0 PANW3=0 PANW4=0 PANW5=0 PANW6=0
+ PANW7=1.1635e-14 PANW8=1.3e-14 PANW9=2.6e-14 PANW10=4.615e-15
XXI_16/MMN0 N_N66_XI_16/MMN0_d N_N74_XI_16/MMN0_g N_GND!_XI_16/MMN0_s
+ N_GND!_D0_noxref_pos NFET L=6.5e-08 W=8.5e-07 AD=4.4115e-13 AS=2.0825e-13
+ PD=2.738e-06 PS=2.19e-06 NRD=0.447059 NRS=0.124706 M=1 NF=1 CNR_SWITCH=0
+ PCCRIT=0 PAR=1 PTWELL=0 SA=5.19e-07 SB=2.45e-07 SD=0 PANW1=0 PANW2=0 PANW3=0
+ PANW4=0 PANW5=0 PANW6=0 PANW7=1.1635e-14 PANW8=1.3e-14 PANW9=2.6e-14
+ PANW10=4.615e-15
XXU66/MMN0 N_M65_XU66/MMN0_d N_N29_XU66/MMN0_g N_GND!_XU66/MMN0_s
+ N_GND!_D0_noxref_pos NFET L=6.5e-08 W=8.5e-07 AD=4.4115e-13 AS=2.0825e-13
+ PD=2.738e-06 PS=2.19e-06 NRD=0.447059 NRS=0.124706 M=1 NF=1 CNR_SWITCH=0
+ PCCRIT=0 PAR=1 PTWELL=0 SA=5.19e-07 SB=2.45e-07 SD=0 PANW1=0 PANW2=0 PANW3=0
+ PANW4=0 PANW5=0 PANW6=0 PANW7=1.1635e-14 PANW8=1.3e-14 PANW9=2.6e-14
+ PANW10=4.615e-15
XXU73/MMN2 N_M74_XU73/MMN2_d N_N66_XU73/MMN2_g XU73/NET14 N_GND!_D0_noxref_pos
+ NFET L=6.5e-08 W=8.5e-07 AD=1.751e-13 AS=3.434e-13 PD=2.112e-06 PS=1.658e-06
+ NRD=0.143529 NRS=0.475294 M=1 NF=1 CNR_SWITCH=0 PCCRIT=0 PAR=1 PTWELL=0
+ SA=2.158e-06 SB=2.06e-07 SD=0 PANW1=0 PANW2=0 PANW3=0 PANW4=0 PANW5=0 PANW6=0
+ PANW7=1.1635e-14 PANW8=1.3e-14 PANW9=2.6e-14 PANW10=4.615e-15
XXU71/MMN1 XU71/NET15 N_N13_XU71/MMN1_g N_GND!_XU71/MMN1_s N_GND!_D0_noxref_pos
+ NFET L=6.5e-08 W=8.5e-07 AD=3.434e-13 AS=2.0825e-13 PD=1.658e-06 PS=2.19e-06
+ NRD=0.475294 NRS=0.124706 M=1 NF=1 CNR_SWITCH=0 PCCRIT=0 PAR=1 PTWELL=0
+ SA=2.45e-07 SB=1.079e-06 SD=0 PANW1=0 PANW2=0 PANW3=0 PANW4=0 PANW5=0 PANW6=0
+ PANW7=1.1635e-14 PANW8=1.3e-14 PANW9=2.6e-14 PANW10=4.615e-15
XXU64/MMN1 XU64/NET15 N_M57_XU64/MMN1_g N_GND!_XU64/MMN3_s N_GND!_D0_noxref_pos
+ NFET L=6.5e-08 W=8.5e-07 AD=1.82325e-13 AS=2.05275e-13 PD=1.279e-06
+ PS=1.333e-06 NRD=0.252353 NRS=0.443529 M=1 NF=1 CNR_SWITCH=0 PCCRIT=0 PAR=1
+ PTWELL=0 SA=1.627e-06 SB=7.37e-07 SD=0 PANW1=0 PANW2=0 PANW3=0 PANW4=0 PANW5=0
+ PANW6=0 PANW7=1.1635e-14 PANW8=1.3e-14 PANW9=2.6e-14 PANW10=4.615e-15
XXU78/MMN0 N_M66_XU78/MMN0_d N_M46_XU78/MMN0_g N_GND!_XU78/MMN0_s
+ N_GND!_D0_noxref_pos NFET L=6.5e-08 W=8.5e-07 AD=4.4115e-13 AS=2.0825e-13
+ PD=2.738e-06 PS=2.19e-06 NRD=0.447059 NRS=0.124706 M=1 NF=1 CNR_SWITCH=0
+ PCCRIT=0 PAR=1 PTWELL=0 SA=5.19e-07 SB=2.45e-07 SD=0 PANW1=0 PANW2=0 PANW3=0
+ PANW4=0 PANW5=0 PANW6=0 PANW7=1.1635e-14 PANW8=1.3e-14 PANW9=2.6e-14
+ PANW10=4.615e-15
XXU65/MMN0 N_M57_XU65/MMN0_d N_M47_XU65/MMN0_g N_GND!_XU65/MMN0_s
+ N_GND!_D0_noxref_pos NFET L=6.5e-08 W=8.5e-07 AD=4.4115e-13 AS=2.0825e-13
+ PD=2.738e-06 PS=2.19e-06 NRD=0.447059 NRS=0.124706 M=1 NF=1 CNR_SWITCH=0
+ PCCRIT=0 PAR=1 PTWELL=0 SA=5.19e-07 SB=2.45e-07 SD=0 PANW1=0 PANW2=0 PANW3=0
+ PANW4=0 PANW5=0 PANW6=0 PANW7=1.1635e-14 PANW8=1.3e-14 PANW9=2.6e-14
+ PANW10=4.615e-15
XXU64/MMN0 N_M73_XU64/MMN0_d N_M65_XU64/MMN0_g XU64/NET15 N_GND!_D0_noxref_pos
+ NFET L=6.5e-08 W=8.5e-07 AD=2.0655e-13 AS=1.82325e-13 PD=2.186e-06
+ PS=1.279e-06 NRD=0.118824 NRS=0.252353 M=1 NF=1 CNR_SWITCH=0 PCCRIT=0 PAR=1
+ PTWELL=0 SA=2.121e-06 SB=2.43e-07 SD=0 PANW1=0 PANW2=0 PANW3=0 PANW4=0 PANW5=0
+ PANW6=0 PANW7=1.1635e-14 PANW8=1.3e-14 PANW9=2.6e-14 PANW10=4.615e-15
XXU71/MMN0 N_M77_XU71/MMN0_d N_N17_XU71/MMN0_g XU71/NET15 N_GND!_D0_noxref_pos
+ NFET L=6.5e-08 W=8.5e-07 AD=1.751e-13 AS=3.434e-13 PD=2.112e-06 PS=1.658e-06
+ NRD=0.143529 NRS=0.475294 M=1 NF=1 CNR_SWITCH=0 PCCRIT=0 PAR=1 PTWELL=0
+ SA=1.118e-06 SB=2.06e-07 SD=0 PANW1=0 PANW2=0 PANW3=0 PANW4=0 PANW5=0 PANW6=0
+ PANW7=1.1635e-14 PANW8=1.3e-14 PANW9=2.6e-14 PANW10=4.615e-15
XXU68/MMN0 N_N67_XU68/MMN0_d N_M74_XU68/MMN0_g XU68/NET15 N_GND!_D0_noxref_pos
+ NFET L=6.5e-08 W=8.5e-07 AD=1.751e-13 AS=3.434e-13 PD=2.112e-06 PS=1.658e-06
+ NRD=0.143529 NRS=0.475294 M=1 NF=1 CNR_SWITCH=0 PCCRIT=0 PAR=1 PTWELL=0
+ SA=2.06e-07 SB=1.118e-06 SD=0 PANW1=0 PANW2=0 PANW3=0 PANW4=0 PANW5=0 PANW6=0
+ PANW7=1.1635e-14 PANW8=1.3e-14 PANW9=2.6e-14 PANW10=4.615e-15
XXU68/MMN1 XU68/NET15 N_M75_XU68/MMN1_g N_GND!_XU68/MMN1_s N_GND!_D0_noxref_pos
+ NFET L=6.5e-08 W=8.5e-07 AD=3.434e-13 AS=2.0825e-13 PD=1.658e-06 PS=2.19e-06
+ NRD=0.475294 NRS=0.124706 M=1 NF=1 CNR_SWITCH=0 PCCRIT=0 PAR=1 PTWELL=0
+ SA=1.079e-06 SB=2.45e-07 SD=0 PANW1=0 PANW2=0 PANW3=0 PANW4=0 PANW5=0 PANW6=0
+ PANW7=1.1635e-14 PANW8=1.3e-14 PANW9=2.6e-14 PANW10=4.615e-15
XXU95/MMN0 N_N55_XU95/MMN0_d N_M38_XU95/MMN0_g N_GND!_XU95/MMN0_s
+ N_GND!_D0_noxref_pos NFET L=6.5e-08 W=8.5e-07 AD=4.4115e-13 AS=2.0825e-13
+ PD=2.738e-06 PS=2.19e-06 NRD=0.447059 NRS=0.124706 M=1 NF=1 CNR_SWITCH=0
+ PCCRIT=0 PAR=1 PTWELL=0 SA=5.19e-07 SB=2.45e-07 SD=0 PANW1=0 PANW2=0 PANW3=0
+ PANW4=0 PANW5=0 PANW6=0 PANW7=1.1635e-14 PANW8=1.3e-14 PANW9=2.6e-14
+ PANW10=4.615e-15
XXU92/MMN0 N_N48_XU92/MMN0_d N_M42_XU92/MMN0_g N_GND!_XU92/MMN0_s
+ N_GND!_D0_noxref_pos NFET L=6.5e-08 W=8.5e-07 AD=4.4115e-13 AS=2.0825e-13
+ PD=2.738e-06 PS=2.19e-06 NRD=0.447059 NRS=0.124706 M=1 NF=1 CNR_SWITCH=0
+ PCCRIT=0 PAR=1 PTWELL=0 SA=5.19e-07 SB=2.45e-07 SD=0 PANW1=0 PANW2=0 PANW3=0
+ PANW4=0 PANW5=0 PANW6=0 PANW7=1.1635e-14 PANW8=1.3e-14 PANW9=2.6e-14
+ PANW10=4.615e-15
XXU45/MMN0 N_M51_XU45/MMN0_d N_M53_XU45/MMN0_g N_GND!_XU45/MMN0_s
+ N_GND!_D0_noxref_pos NFET L=6.5e-08 W=8.5e-07 AD=4.4115e-13 AS=2.0825e-13
+ PD=2.738e-06 PS=2.19e-06 NRD=0.447059 NRS=0.124706 M=1 NF=1 CNR_SWITCH=0
+ PCCRIT=0 PAR=1 PTWELL=0 SA=5.19e-07 SB=2.45e-07 SD=0 PANW1=0 PANW2=0 PANW3=0
+ PANW4=0 PANW5=0 PANW6=0 PANW7=1.1635e-14 PANW8=1.3e-14 PANW9=2.6e-14
+ PANW10=4.615e-15
XXU44/MMN0 N_M48_XU44/MMN0_d N_M51_XU44/MMN0_g XU44/NET15 N_GND!_D0_noxref_pos
+ NFET L=6.5e-08 W=8.5e-07 AD=2.0655e-13 AS=1.82325e-13 PD=2.186e-06
+ PS=1.279e-06 NRD=0.118824 NRS=0.252353 M=1 NF=1 CNR_SWITCH=0 PCCRIT=0 PAR=1
+ PTWELL=0 SA=2.43e-07 SB=2.121e-06 SD=0 PANW1=0 PANW2=0 PANW3=0 PANW4=0 PANW5=0
+ PANW6=0 PANW7=1.1635e-14 PANW8=1.3e-14 PANW9=2.6e-14 PANW10=4.615e-15
XXU47/MMN1 XU47/NET15 N_M56_XU47/MMN1_g N_GND!_XU47/MMN1_s N_GND!_D0_noxref_pos
+ NFET L=6.5e-08 W=8.5e-07 AD=3.434e-13 AS=2.0825e-13 PD=1.658e-06 PS=2.19e-06
+ NRD=0.475294 NRS=0.124706 M=1 NF=1 CNR_SWITCH=0 PCCRIT=0 PAR=1 PTWELL=0
+ SA=2.45e-07 SB=1.079e-06 SD=0 PANW1=0 PANW2=0 PANW3=0 PANW4=0 PANW5=0 PANW6=0
+ PANW7=1.1635e-14 PANW8=1.3e-14 PANW9=2.6e-14 PANW10=4.615e-15
XXU69/MMN0 N_M75_XU69/MMN0_d N_N74_XU69/MMN0_g XU69/NET15 N_GND!_D0_noxref_pos
+ NFET L=6.5e-08 W=8.5e-07 AD=1.751e-13 AS=3.434e-13 PD=2.112e-06 PS=1.658e-06
+ NRD=0.143529 NRS=0.475294 M=1 NF=1 CNR_SWITCH=0 PCCRIT=0 PAR=1 PTWELL=0
+ SA=2.06e-07 SB=1.118e-06 SD=0 PANW1=0 PANW2=0 PANW3=0 PANW4=0 PANW5=0 PANW6=0
+ PANW7=1.1635e-14 PANW8=1.3e-14 PANW9=2.6e-14 PANW10=4.615e-15
XXU44/MMN1 XU44/NET15 N_N29_XU44/MMN1_g N_GND!_XU44/MMN1_s N_GND!_D0_noxref_pos
+ NFET L=6.5e-08 W=8.5e-07 AD=1.82325e-13 AS=2.05275e-13 PD=1.279e-06
+ PS=1.333e-06 NRD=0.252353 NRS=0.443529 M=1 NF=1 CNR_SWITCH=0 PCCRIT=0 PAR=1
+ PTWELL=0 SA=7.37e-07 SB=1.627e-06 SD=0 PANW1=0 PANW2=0 PANW3=0 PANW4=0 PANW5=0
+ PANW6=0 PANW7=1.1635e-14 PANW8=1.3e-14 PANW9=2.6e-14 PANW10=4.615e-15
XXU70/MMN1 XU70/NET15 N_M77_XU70/MMN1_g N_GND!_XU70/MMN1_s N_GND!_D0_noxref_pos
+ NFET L=6.5e-08 W=8.5e-07 AD=3.434e-13 AS=2.0825e-13 PD=1.658e-06 PS=2.19e-06
+ NRD=0.475294 NRS=0.124706 M=1 NF=1 CNR_SWITCH=0 PCCRIT=0 PAR=1 PTWELL=0
+ SA=2.45e-07 SB=1.079e-06 SD=0 PANW1=0 PANW2=0 PANW3=0 PANW4=0 PANW5=0 PANW6=0
+ PANW7=1.1635e-14 PANW8=1.3e-14 PANW9=2.6e-14 PANW10=4.615e-15
XXU44/MMN3 XU44/NET14 N_M52_XU44/MMN3_g N_GND!_XU44/MMN1_s N_GND!_D0_noxref_pos
+ NFET L=6.5e-08 W=8.5e-07 AD=3.434e-13 AS=2.05275e-13 PD=1.658e-06 PS=1.333e-06
+ NRD=0.475294 NRS=0.124706 M=1 NF=1 CNR_SWITCH=0 PCCRIT=0 PAR=1 PTWELL=0
+ SA=1.285e-06 SB=1.079e-06 SD=0 PANW1=0 PANW2=0 PANW3=0 PANW4=0 PANW5=0 PANW6=0
+ PANW7=1.1635e-14 PANW8=1.3e-14 PANW9=2.6e-14 PANW10=4.615e-15
XXU47/MMN0 N_M54_XU47/MMN0_d N_M55_XU47/MMN0_g XU47/NET15 N_GND!_D0_noxref_pos
+ NFET L=6.5e-08 W=8.5e-07 AD=1.751e-13 AS=3.434e-13 PD=2.112e-06 PS=1.658e-06
+ NRD=0.143529 NRS=0.475294 M=1 NF=1 CNR_SWITCH=0 PCCRIT=0 PAR=1 PTWELL=0
+ SA=1.118e-06 SB=2.06e-07 SD=0 PANW1=0 PANW2=0 PANW3=0 PANW4=0 PANW5=0 PANW6=0
+ PANW7=1.1635e-14 PANW8=1.3e-14 PANW9=2.6e-14 PANW10=4.615e-15
XXU69/MMN1 XU69/NET15 N_M50_XU69/MMN1_g N_GND!_XU69/MMN1_s N_GND!_D0_noxref_pos
+ NFET L=6.5e-08 W=8.5e-07 AD=3.434e-13 AS=2.0825e-13 PD=1.658e-06 PS=2.19e-06