* File: alu.pex.netlist.pex
* Created: Wed May  1 12:16:42 2024
* Program "Calibre xRC"
* Version "v2013.2_18.13"
* Nominal Temperature: 27C
* Circuit Temperature: 27C
* 
.subckt PM_ALU%GND! 1 4 7 11 14 18 21 25 30 33 35 39 42 46 49 53 58 61 63 67 70
+ 74 79 86 89 95 102 107 110 116 119 123 126 130 133 137 140 144 147 151 154 158
+ 163 168 171 173 175 179 182 186 191 194 198 203 206 208 210 214 217 221 224
+ 228 233 238 243 246 248 250 252 256 261 264 266 270 273 277 282 287 290 294
+ 298 301 305 308 312 315 319 324 327 333 338 341 343 347 350 354 359 362 364
+ 368 371 375 380 383 385 389 392 396 401 404 406 410 413 417 420 424 429 434
+ 437 439 441 445 450 455 459 462 466 469 473 476 480 483 487 492 495 497 501
+ 504 508 511 515 520 523 525 529 532 536 541 544 546 550 553 557 560 564 567
+ 571 574 578 581 585 588 592 595 599 604 607 609 613 616 620 623 627 630 634
+ 637 641 644 648 653 658 661 663 665 669 672 676 679 683 686 690 693 697 702
+ 705 707 711 714 718 721 725 728 732 735 739 744 747 749 753 756 760 763 767
+ 770 774 777 781 784 788 791 795 798 802 807 810 812 816 819 823 826 830 835
+ 840 843 845 847 851 854 858 863 866 872 875 879 884 887 893 896 900 903 907
+ 910 914 917 921 924 928 931 935 940 943 945 949 954 959 963 968 971 973 977
+ 980 984 987 991 996 1001 1006 1009 1011 1013 1017 1022 1027 1032 1035 1039
+ 1044 1049 1052 1056 1058 1062 1064 1068 1075 1100 1136 1178 1208 1211 1223
+ 1226 1232 1238 1241 1262 1280 1283 1292 1298 1313 1319 1336 1348 1366 1373
+ 1382 1416 1442 1444 1446 1477 1506 1507 1511 1514 1517 1520 1523 1526 1529
+ 1532 1661 1662 1663 1664 1665 1666 1667 1669 1670 1672 1673 1674 1675 1676
+ 1677 1678 1679 1681 1682 1684 1685 1686 1687 1688 1689 1690 1691 1692 1694
+ 1695 1696 1697 1699 1700 1702 1703 1704 1705 1706 1707 1708 1709 1710 1711
+ 1712 1714 1715 1716 1717 1718 1719 1720 1721 1723 1724 1725 1727 1728 1729
+ 1730 1732 1734 1736 1737 1738 1740 1741 1742 1743 1744 1745 1746 1747 1748
+ 1749 1750 1751 1752 1754 1756 1757 1758 1759 1760 1762 1763 1764 1766 1767
+ 1768 1769 1770 1772 1773 1774 1776 1778 1780 1782 1783 1785 1786 1788 1789
+ 1790 1791 1793 1794 1796 1797 1799 1800 1802 1803 1805 1806 1807 1809 1811
+ 1812 1813 1815 1816 1818 1819 1821 1822 1823 1825 1826 1827 1829 1831 1833
+ 1834 1836 1837 1839 1840 1841 1842 1843 1844 1846 1847 1848 1849 1850 1852
+ 1853 1854 1855 1878
c6500 1745 0 1.16266e-19
c6501 1738 0 1.32417e-19
c6502 1705 0 4.31743e-20
c6503 1687 0 1.16266e-19
c6504 1663 0 1.01289e-19
c6505 1514 0 1.64261e-19
c6506 1506 0 1.53588e-19
c6507 1032 0 1.7063e-19
c6508 996 0 1.24458e-19
c6509 968 0 1.37095e-20
c6510 940 0 1.93629e-19
c6511 907 0 1.70996e-19
c6512 884 0 1.27913e-19
c6513 872 0 1.40617e-19
c6514 863 0 8.28128e-21
c6515 854 0 5.23887e-20
c6516 835 0 1.48324e-19
c6517 823 0 1.75382e-19
c6518 819 0 1.64261e-19
c6519 791 0 1.22942e-19
c6520 774 0 1.70996e-19
c6521 760 0 1.70996e-19
c6522 753 0 1.41339e-19
c6523 739 0 1.41339e-19
c6524 718 0 7.95446e-21
c6525 697 0 1.93629e-19
c6526 683 0 1.93629e-19
c6527 669 0 9.86845e-20
c6528 613 0 1.61331e-19
c6529 595 0 4.7613e-20
c6530 495 0 1.64261e-19
c6531 473 0 1.66859e-19
c6532 445 0 1.58656e-19
c6533 413 0 1.77977e-19
c6534 375 0 6.52515e-21
c6535 354 0 7.45315e-20
c6536 338 0 1.48958e-19
c6537 333 0 3.63738e-20
c6538 319 0 1.31238e-19
c6539 312 0 1.84365e-19
c6540 298 0 1.56242e-19
c6541 270 0 1.55862e-19
c6542 224 0 2.11292e-19
c6543 168 0 1.56242e-19
c6544 158 0 1.2724e-19
c6545 89 0 1.64244e-19
c6546 70 0 6.92164e-20
c6547 1 0 8.61665e-19
r6548 1532 1878 0.405503
r6549 1531 1532 1.7
r6550 1528 1531 4.82701
r6551 1528 1529 1.7
r6552 1525 1528 7.53714
r6553 1525 1526 1.7
r6554 1522 1525 7.53385
r6555 1522 1523 1.7
r6556 1519 1522 7.53912
r6557 1519 1520 1.7
r6558 1516 1519 7.54504
r6559 1516 1517 1.7
r6560 1513 1516 7.53319
r6561 1513 1514 1.7
r6562 1510 1513 7.54373
r6563 1510 1511 1.7
r6564 1506 1510 0.616298
r6565 1506 1507 1.7
r6566 1503 1878 52.0053
r6567 1502 1503 1.7
r6568 1499 1502 4.82767
r6569 1499 1500 1.7
r6570 1496 1499 7.53583
r6571 1496 1497 1.7
r6572 1493 1496 7.53978
r6573 1493 1494 1.7
r6574 1490 1493 7.53583
r6575 1490 1491 1.7
r6576 1487 1490 7.54044
r6577 1487 1488 1.7
r6578 1484 1487 7.53253
r6579 1484 1485 1.7
r6580 1481 1484 7.5457
r6581 1481 1482 1.7
r6582 1478 1507 52.4108
r6583 1477 1481 0.617615
r6584 1477 1478 1.7
r6585 1474 1517 1.77787
r6586 1474 1475 0.0284163
r6587 1470 1529 2.03532
r6588 1470 1472 0.0284163
r6589 1466 1520 2.03532
r6590 1466 1468 0.0284163
r6591 1459 1523 2.54051
r6592 1459 1461 0.0284163
r6593 1455 1526 2.61823
r6594 1455 1457 0.0284163
r6595 1451 1511 3.0457
r6596 1451 1453 0.0284163
r6597 1440 1514 4.1338
r6598 1440 1442 0.0284163
r6599 1075 1500 5.14417
r6600 1075 1077 0.0284163
r6601 1068 1494 4.81386
r6602 1068 1070 0.0284163
r6603 1064 1497 4.56126
r6604 1064 1066 0.0284163
r6605 1062 1491 4.56126
r6606 1062 1063 0.0284163
r6607 1058 1485 4.30867
r6608 1058 1060 0.0284163
r6609 1056 1488 3.69078
r6610 1056 1057 0.0284163
r6611 1052 1482 3.55089
r6612 1052 1054 0.0284163
r6613 1049 1855 10
r6614 1047 1475 0.0168501
r6615 1047 1049 2.24633
r6616 1044 1854 10
r6617 1042 1472 0.0168501
r6618 1042 1044 1.74484
r6619 1039 1853 10
r6620 1037 1468 0.0168501
r6621 1037 1039 1.74484
r6622 1036 1464 0.0284163
r6623 1035 1475 0.0284163
r6624 1035 1036 0.56445
r6625 1032 1852 10
r6626 1030 1464 0.0168501
r6627 1030 1032 2.24633
r6628 1027 1850 10
r6629 1025 1461 0.0168501
r6630 1025 1027 1.74484
r6631 1022 1849 10
r6632 1020 1457 0.0168501
r6633 1020 1022 1.74484
r6634 1017 1848 10
r6635 1015 1453 0.0168501
r6636 1015 1017 1.74484
r6637 1014 1449 0.0284163
r6638 1013 1472 0.0284163
r6639 1013 1014 1.93331
r6640 1012 1446 0.0284163
r6641 1011 1457 0.0284163
r6642 1011 1012 1.35041
r6643 1010 1444 0.0284163
r6644 1009 1464 0.0284163
r6645 1009 1010 1.73858
r6646 1006 1847 10
r6647 1004 1449 0.0168501
r6648 1004 1006 1.74484
r6649 1001 1846 10
r6650 999 1446 0.0168501
r6651 999 1001 1.74484
r6652 996 1844 10
r6653 994 1444 0.0168501
r6654 994 996 2.24633
r6655 991 1843 10
r6656 989 1442 0.0168501
r6657 989 991 1.74484
r6658 988 1438 0.0284163
r6659 987 1468 0.0284163
r6660 987 988 2.51622
r6661 984 1842 10
r6662 982 1438 0.0168501
r6663 982 984 1.74484
r6664 981 1436 0.0284163
r6665 980 1444 0.0284163
r6666 980 981 0.613997
r6667 977 1841 10
r6668 975 1436 0.0168501
r6669 975 977 2.24633
r6670 974 1434 0.0284163
r6671 973 1442 0.0284163
r6672 973 974 1.35041
r6673 972 1431 0.0284163
r6674 971 1453 0.0284163
r6675 971 972 2.51622
r6676 968 1840 10
r6677 966 1434 0.0168501
r6678 966 968 1.74484
r6679 963 1839 10
r6680 961 1431 0.0168501
r6681 961 963 1.74484
r6682 960 1428 0.0284163
r6683 959 1461 0.0284163
r6684 959 960 3.44888
r6685 958 1425 0.0284163
r6686 957 1438 0.0284163
r6687 957 958 1.35041
r6688 954 1837 10
r6689 952 1428 0.0168501
r6690 952 954 1.74484
r6691 949 1836 10
r6692 947 1425 0.0168501
r6693 947 949 1.74484
r6694 946 1422 0.0284163
r6695 945 1436 0.0284163
r6696 945 946 2.03894
r6697 944 1419 0.0284163
r6698 943 1449 0.0284163
r6699 943 944 2.51622
r6700 940 1834 10
r6701 938 1422 0.0168501
r6702 938 940 3.02298
r6703 935 1833 10
r6704 933 1419 0.0168501
r6705 933 935 1.74484
r6706 932 1416 0.0284163
r6707 931 1446 0.0284163
r6708 931 932 2.94369
r6709 928 1831 10
r6710 926 1416 0.0168501
r6711 926 928 1.74484
r6712 925 1414 0.0284163
r6713 924 1422 0.0284163
r6714 924 925 1.16636
r6715 921 1829 10
r6716 919 1414 0.0168501
r6717 919 921 1.74193
r6718 918 1413 0.0284163
r6719 917 1414 0.0284163
r6720 917 918 1.99841
r6721 914 1827 10
r6722 912 1413 0.0168501
r6723 912 914 2.24633
r6724 911 1411 0.0284163
r6725 910 1413 0.0284163
r6726 910 911 0.56445
r6727 907 1826 10
r6728 905 1411 0.0168501
r6729 905 907 2.24633
r6730 904 1408 0.0284163
r6731 903 1434 0.0284163
r6732 903 904 5.29476
r6733 900 1825 10
r6734 898 1408 0.0168501
r6735 898 900 1.74484
r6736 897 1405 0.0284163
r6737 896 1425 0.0284163
r6738 896 897 5.21703
r6739 893 1823 10
r6740 891 1405 0.0168501
r6741 891 893 1.74484
r6742 890 1402 0.0284163
r6743 889 1431 0.0284163
r6744 889 890 6.14969
r6745 888 1399 0.0284163
r6746 887 1419 0.0284163
r6747 887 888 5.21703
r6748 884 1822 10
r6749 882 1402 0.0168501
r6750 882 884 1.74484
r6751 879 1821 10
r6752 877 1399 0.0168501
r6753 877 879 1.74484
r6754 876 1397 0.0284163
r6755 875 1411 0.0284163
r6756 875 876 1.73858
r6757 872 1819 10
r6758 870 1397 0.0168501
r6759 870 872 2.24633
r6760 869 1395 0.0284163
r6761 868 1408 0.0284163
r6762 868 869 1.35041
r6763 867 1392 0.0284163
r6764 866 1428 0.0284163
r6765 866 867 6.30513
r6766 863 1818 10
r6767 861 1395 0.0168501
r6768 861 863 1.74484
r6769 858 1816 10
r6770 856 1392 0.0168501
r6771 856 858 1.74484
r6772 855 1390 0.0284163
r6773 854 1397 0.0284163
r6774 854 855 0.613997
r6775 851 1815 10
r6776 849 1390 0.0168501
r6777 849 851 2.24633
r6778 848 1388 0.0284163
r6779 847 1399 0.0284163
r6780 847 848 2.36078
r6781 846 1385 0.0284163
r6782 845 1402 0.0284163
r6783 845 846 2.4385
r6784 844 1382 0.0284163
r6785 843 1416 0.0284163
r6786 843 844 7.31551
r6787 840 1813 10
r6788 838 1388 0.0168501
r6789 838 840 1.74484
r6790 835 1812 10
r6791 833 1385 0.0168501
r6792 833 835 1.74484
r6793 830 1811 10
r6794 828 1382 0.0168501
r6795 828 830 1.74484
r6796 827 1379 0.0284163
r6797 826 1390 0.0284163
r6798 826 827 2.03894
r6799 823 1809 10
r6800 821 1379 0.0168501
r6801 821 823 3.02298
r6802 820 1376 0.0284163
r6803 819 1405 0.0284163
r6804 819 820 3.44888
r6805 816 1807 10
r6806 814 1376 0.0168501
r6807 814 816 1.74484
r6808 813 1373 0.0284163
r6809 812 1392 0.0284163
r6810 812 813 2.94369
r6811 811 1370 0.0284163
r6812 810 1395 0.0284163
r6813 810 811 3.02141
r6814 807 1806 10
r6815 805 1373 0.0168501
r6816 805 807 1.74484
r6817 802 1805 10
r6818 800 1370 0.0168501
r6819 800 802 1.74484
r6820 799 1368 0.0284163
r6821 798 1379 0.0284163
r6822 798 799 1.16636
r6823 795 1803 10
r6824 793 1368 0.0168501
r6825 793 795 1.74193
r6826 792 1366 0.0284163
r6827 791 1382 0.0284163
r6828 791 792 2.4385
r6829 788 1802 10
r6830 786 1366 0.0168501
r6831 786 788 1.74484
r6832 785 1364 0.0284163
r6833 784 1370 0.0284163
r6834 784 785 1.59814
r6835 781 1800 10
r6836 779 1364 0.0168501
r6837 779 781 2.24633
r6838 778 1362 0.0284163
r6839 777 1364 0.0284163
r6840 777 778 0.56445
r6841 774 1799 10
r6842 772 1362 0.0168501
r6843 772 774 2.24633
r6844 771 1360 0.0284163
r6845 770 1368 0.0284163
r6846 770 771 1.99841
r6847 767 1797 10
r6848 765 1360 0.0168501
r6849 765 767 2.24633
r6850 764 1358 0.0284163
r6851 763 1360 0.0284163
r6852 763 764 0.56445
r6853 760 1796 10
r6854 758 1358 0.0168501
r6855 758 760 2.24633
r6856 757 1356 0.0284163
r6857 756 1362 0.0284163
r6858 756 757 1.73858
r6859 753 1794 10
r6860 751 1356 0.0168501
r6861 751 753 2.24633
r6862 750 1355 0.0284163
r6863 749 1356 0.0284163
r6864 749 750 0.613997
r6865 748 1354 0.0284163
r6866 747 1358 0.0284163
r6867 747 748 1.73858
r6868 744 1793 10
r6869 742 1355 0.0168501
r6870 742 744 2.24633
r6871 739 1791 10
r6872 737 1354 0.0168501
r6873 737 739 2.24633
r6874 736 1352 0.0284163
r6875 735 1376 0.0284163
r6876 735 736 5.72222
r6877 732 1790 10
r6878 730 1352 0.0168501
r6879 730 732 1.74484
r6880 729 1350 0.0284163
r6881 728 1354 0.0284163
r6882 728 729 0.613997
r6883 725 1789 10
r6884 723 1350 0.0168501
r6885 723 725 2.24633
r6886 722 1348 0.0284163
r6887 721 1366 0.0284163
r6888 721 722 4.12894
r6889 718 1788 10
r6890 716 1348 0.0168501
r6891 716 718 1.74484
r6892 715 1345 0.0284163
r6893 714 1373 0.0284163
r6894 714 715 5.97482
r6895 711 1786 10
r6896 709 1345 0.0168501
r6897 709 711 1.74484
r6898 708 1342 0.0284163
r6899 707 1388 0.0284163
r6900 707 708 7.49038
r6901 706 1339 0.0284163
r6902 705 1355 0.0284163
r6903 705 706 2.03894
r6904 702 1785 10
r6905 700 1342 0.0168501
r6906 700 702 1.74484
r6907 697 1783 10
r6908 695 1339 0.0168501
r6909 695 697 3.02298
r6910 694 1336 0.0284163
r6911 693 1385 0.0284163
r6912 693 694 8.07329
r6913 690 1782 10
r6914 688 1336 0.0168501
r6915 688 690 1.74484
r6916 687 1333 0.0284163
r6917 686 1350 0.0284163
r6918 686 687 2.03894
r6919 683 1780 10
r6920 681 1333 0.0168501
r6921 681 683 3.02298
r6922 680 1331 0.0284163
r6923 679 1339 0.0284163
r6924 679 680 1.16636
r6925 676 1778 10
r6926 674 1331 0.0168501
r6927 674 676 1.74193
r6928 673 1329 0.0284163
r6929 672 1352 0.0284163
r6930 672 673 3.02141
r6931 669 1776 10
r6932 667 1329 0.0168501
r6933 667 669 1.74484
r6934 666 1327 0.0284163
r6935 665 1333 0.0284163
r6936 665 666 1.16636
r6937 664 1325 0.0284163
r6938 663 1345 0.0284163
r6939 663 664 2.36078
r6940 662 1322 0.0284163
r6941 661 1336 0.0284163
r6942 661 662 1.35041
r6943 658 1774 10
r6944 656 1327 0.0168501
r6945 656 658 1.74193
r6946 653 1773 10
r6947 651 1325 0.0168501
r6948 651 653 1.74484
r6949 648 1772 10
r6950 646 1322 0.0168501
r6951 646 648 1.74484
r6952 645 1319 0.0284163
r6953 644 1348 0.0284163
r6954 644 645 3.02141
r6955 641 1770 10
r6956 639 1319 0.0168501
r6957 639 641 1.74484
r6958 638 1316 0.0284163
r6959 637 1342 0.0284163
r6960 637 638 2.51622
r6961 634 1769 10
r6962 632 1316 0.0168501
r6963 632 634 1.74484
r6964 631 1313 0.0284163
r6965 630 1331 0.0284163
r6966 630 631 1.75067
r6967 627 1768 10
r6968 625 1313 0.0168501
r6969 625 627 1.74484
r6970 624 1310 0.0284163
r6971 623 1327 0.0284163
r6972 623 624 3.77142
r6973 620 1767 10
r6974 618 1310 0.0168501
r6975 618 620 1.74484
r6976 617 1307 0.0284163
r6977 616 1313 0.0284163
r6978 616 617 3.70147
r6979 613 1766 10
r6980 611 1307 0.0168501
r6981 611 613 1.74484
r6982 610 1304 0.0284163
r6983 609 1329 0.0284163
r6984 609 610 5.8971
r6985 608 1301 0.0284163
r6986 607 1310 0.0284163
r6987 607 608 1.93331
r6988 604 1764 10
r6989 602 1304 0.0168501
r6990 602 604 1.74484
r6991 599 1763 10
r6992 597 1301 0.0168501
r6993 597 599 1.74484
r6994 596 1298 0.0284163
r6995 595 1319 0.0284163
r6996 595 596 5.97482
r6997 592 1762 10
r6998 590 1298 0.0168501
r6999 590 592 1.74484
r7000 589 1295 0.0284163
r7001 588 1322 0.0284163
r7002 588 589 6.7326
r7003 585 1760 10
r7004 583 1295 0.0168501
r7005 583 585 1.74484
r7006 582 1292 0.0284163
r7007 581 1316 0.0284163
r7008 581 582 6.40228
r7009 578 1759 10
r7010 576 1292 0.0168501
r7011 576 578 1.74484
r7012 575 1289 0.0284163
r7013 574 1307 0.0284163
r7014 574 575 2.4385
r7015 571 1758 10
r7016 569 1289 0.0168501
r7017 569 571 1.74484
r7018 568 1286 0.0284163
r7019 567 1325 0.0284163
r7020 567 568 7.82069
r7021 564 1757 10
r7022 562 1286 0.0168501
r7023 562 564 1.74484
r7024 561 1283 0.0284163
r7025 560 1301 0.0284163
r7026 560 561 2.4385
r7027 557 1756 10
r7028 555 1283 0.0168501
r7029 555 557 1.74484
r7030 554 1280 0.0284163
r7031 553 1298 0.0284163
r7032 553 554 2.36078
r7033 550 1754 10
r7034 548 1280 0.0168501
r7035 548 550 1.74484
r7036 547 1277 0.0284163
r7037 546 1304 0.0284163
r7038 546 547 3.44888
r7039 545 1274 0.0284163
r7040 544 1295 0.0284163
r7041 544 545 2.4385
r7042 541 1752 10
r7043 539 1277 0.0168501
r7044 539 541 1.74484
r7045 536 1751 10
r7046 534 1274 0.0168501
r7047 534 536 1.74484
r7048 533 1271 0.0284163
r7049 532 1292 0.0284163
r7050 532 533 2.51622
r7051 529 1750 10
r7052 527 1271 0.0168501
r7053 527 529 1.74484
r7054 526 1268 0.0284163
r7055 525 1289 0.0284163
r7056 525 526 2.4385
r7057 524 1265 0.0284163
r7058 523 1286 0.0284163
r7059 523 524 1.93331
r7060 520 1749 10
r7061 518 1268 0.0168501
r7062 518 520 1.74484
r7063 515 1748 10
r7064 513 1265 0.0168501
r7065 513 515 1.74484
r7066 512 1262 0.0284163
r7067 511 1283 0.0284163
r7068 511 512 2.4385
r7069 508 1747 10
r7070 506 1262 0.0168501
r7071 506 508 1.74484
r7072 505 1259 0.0284163
r7073 504 1262 0.0284163
r7074 504 505 2.94369
r7075 501 1746 10
r7076 499 1259 0.0168501
r7077 499 501 1.74484
r7078 498 1256 0.0284163
r7079 497 1265 0.0284163
r7080 497 498 4.88672
r7081 496 1253 0.0284163
r7082 495 1268 0.0284163
r7083 495 496 4.96444
r7084 492 1745 10
r7085 490 1256 0.0168501
r7086 490 492 1.74484
r7087 487 1744 10
r7088 485 1253 0.0168501
r7089 485 487 1.74484
r7090 484 1250 0.0284163
r7091 483 1274 0.0284163
r7092 483 484 6.05254
r7093 480 1743 10
r7094 478 1250 0.0168501
r7095 478 480 1.74484
r7096 477 1247 0.0284163
r7097 476 1277 0.0284163
r7098 476 477 6.30513
r7099 473 1742 10
r7100 471 1247 0.0168501
r7101 471 473 1.74484
r7102 470 1244 0.0284163
r7103 469 1271 0.0284163
r7104 469 470 6.14969
r7105 466 1741 10
r7106 464 1244 0.0168501
r7107 464 466 1.74484
r7108 463 1241 0.0284163
r7109 462 1280 0.0284163
r7110 462 463 7.5681
r7111 459 1740 10
r7112 457 1241 0.0168501
r7113 457 459 1.74484
r7114 456 1238 0.0284163
r7115 455 1259 0.0284163
r7116 455 456 2.94369
r7117 454 1235 0.0284163
r7118 453 1250 0.0284163
r7119 453 454 1.35041
r7120 450 1738 10
r7121 448 1238 0.0168501
r7122 448 450 1.74484
r7123 445 1737 10
r7124 443 1235 0.0168501
r7125 443 445 1.74484
r7126 442 1232 0.0284163
r7127 441 1241 0.0284163
r7128 441 442 1.35041
r7129 440 1229 0.0284163
r7130 439 1253 0.0284163
r7131 439 440 2.94369
r7132 438 1226 0.0284163
r7133 437 1256 0.0284163
r7134 437 438 3.02141
r7135 434 1736 10
r7136 432 1232 0.0168501
r7137 432 434 1.74484
r7138 429 1734 10
r7139 427 1229 0.0168501
r7140 427 429 1.74484
r7141 424 1732 10
r7142 422 1226 0.0168501
r7143 422 424 1.74484
r7144 421 1223 0.0284163
r7145 420 1247 0.0284163
r7146 420 421 2.4385
r7147 417 1730 10
r7148 415 1223 0.0168501
r7149 415 417 1.74484
r7150 414 1220 0.0284163
r7151 413 1244 0.0284163
r7152 413 414 3.02141
r7153 410 1729 10
r7154 408 1220 0.0168501
r7155 408 410 1.74484
r7156 407 1217 0.0284163
r7157 406 1238 0.0284163
r7158 406 407 2.4385
r7159 405 1214 0.0284163
r7160 404 1235 0.0284163
r7161 404 405 2.4385
r7162 401 1728 10
r7163 399 1217 0.0168501
r7164 399 401 1.74484
r7165 396 1727 10
r7166 394 1214 0.0168501
r7167 394 396 1.74484
r7168 393 1211 0.0284163
r7169 392 1223 0.0284163
r7170 392 393 5.21703
r7171 389 1725 10
r7172 387 1211 0.0168501
r7173 387 389 1.74484
r7174 386 1208 0.0284163
r7175 385 1232 0.0284163
r7176 385 386 5.97482
r7177 384 1205 0.0284163
r7178 383 1214 0.0284163
r7179 383 384 4.45925
r7180 380 1724 10
r7181 378 1208 0.0168501
r7182 378 380 1.74484
r7183 375 1723 10
r7184 373 1205 0.0168501
r7185 373 375 1.74484
r7186 372 1202 0.0284163
r7187 371 1217 0.0284163
r7188 371 372 5.29476
r7189 368 1721 10
r7190 366 1202 0.0168501
r7191 366 368 1.74484
r7192 365 1199 0.0284163
r7193 364 1220 0.0284163
r7194 364 365 5.8971
r7195 363 1196 0.0284163
r7196 362 1229 0.0284163
r7197 362 363 7.06291
r7198 359 1720 10
r7199 357 1199 0.0168501
r7200 357 359 1.74484
r7201 354 1719 10
r7202 352 1196 0.0168501
r7203 352 354 1.74484
r7204 351 1193 0.0284163
r7205 350 1226 0.0284163
r7206 350 351 7.49038
r7207 347 1718 10
r7208 345 1193 0.0168501
r7209 345 347 1.74484
r7210 344 1190 0.0284163
r7211 343 1211 0.0284163
r7212 343 344 2.36078
r7213 342 1187 0.0284163
r7214 341 1205 0.0284163
r7215 341 342 1.93331
r7216 338 1717 10
r7217 336 1190 0.0168501
r7218 336 338 1.74484
r7219 333 1716 10
r7220 331 1187 0.0168501
r7221 331 333 1.74484
r7222 330 1184 0.0284163
r7223 329 1193 0.0284163
r7224 329 330 1.35041
r7225 328 1181 0.0284163
r7226 327 1196 0.0284163
r7227 327 328 1.93331
r7228 324 1715 10
r7229 322 1184 0.0168501
r7230 322 324 1.74484
r7231 319 1714 10
r7232 317 1181 0.0168501
r7233 317 319 1.74484
r7234 316 1178 0.0284163
r7235 315 1208 0.0284163
r7236 315 316 3.5266
r7237 312 1712 10
r7238 310 1178 0.0168501
r7239 310 312 1.74484
r7240 309 1175 0.0284163
r7241 308 1199 0.0284163
r7242 308 309 3.02141
r7243 305 1711 10
r7244 303 1175 0.0168501
r7245 303 305 1.74484
r7246 302 1172 0.0284163
r7247 301 1202 0.0284163
r7248 301 302 3.44888
r7249 298 1710 10
r7250 296 1172 0.0168501
r7251 296 298 1.74484
r7252 295 1169 0.0284163
r7253 294 1190 0.0284163
r7254 294 295 2.4385
r7255 293 1166 0.0284163
r7256 292 1181 0.0284163
r7257 292 293 1.35041
r7258 291 1163 0.0284163
r7259 290 1187 0.0284163
r7260 290 291 2.4385
r7261 287 1709 10
r7262 285 1169 0.0168501
r7263 285 287 1.74484
r7264 282 1708 10
r7265 280 1166 0.0168501
r7266 280 282 1.74484
r7267 277 1707 10
r7268 275 1163 0.0168501
r7269 275 277 1.74484
r7270 274 1160 0.0284163
r7271 273 1169 0.0284163
r7272 273 274 3.19628
r7273 270 1706 10
r7274 268 1160 0.0168501
r7275 268 270 1.74484
r7276 267 1157 0.0284163
r7277 266 1172 0.0284163
r7278 266 267 4.88672
r7279 265 1154 0.0284163
r7280 264 1163 0.0284163
r7281 264 265 4.71185
r7282 261 1705 10
r7283 259 1157 0.0168501
r7284 259 261 1.74484
r7285 256 1704 10
r7286 254 1154 0.0168501
r7287 254 256 1.74484
r7288 253 1151 0.0284163
r7289 252 1178 0.0284163
r7290 252 253 6.65488
r7291 251 1148 0.0284163
r7292 250 1184 0.0284163
r7293 250 251 7.23779
r7294 249 1145 0.0284163
r7295 248 1166 0.0284163
r7296 248 249 5.72222
r7297 247 1142 0.0284163
r7298 246 1175 0.0284163
r7299 246 247 6.22741
r7300 243 1703 10
r7301 241 1151 0.0168501
r7302 241 243 1.74484
r7303 238 1702 10
r7304 236 1148 0.0168501
r7305 236 238 1.74484
r7306 233 1700 10
r7307 231 1145 0.0168501
r7308 231 233 1.74484
r7309 228 1699 10
r7310 226 1142 0.0168501
r7311 226 228 1.74484
r7312 225 1139 0.0284163
r7313 224 1160 0.0284163
r7314 224 225 3.5266
r7315 221 1697 10
r7316 219 1139 0.0168501
r7317 219 221 1.74484
r7318 218 1136 0.0284163
r7319 217 1157 0.0284163
r7320 217 218 2.51622
r7321 214 1696 10
r7322 212 1136 0.0168501
r7323 212 214 1.74484
r7324 211 1134 0.0284163
r7325 210 1151 0.0284163
r7326 210 211 1.90125
r7327 209 1133 0.0284163
r7328 208 1148 0.0284163
r7329 208 209 1.90125
r7330 207 1131 0.0284163
r7331 206 1154 0.0284163
r7332 206 207 2.94369
r7333 203 1695 10
r7334 201 1134 0.0168501
r7335 201 203 1.74484
r7336 198 1694 10
r7337 196 1133 0.0168501
r7338 196 198 1.74484
r7339 195 1128 0.0284163
r7340 194 1142 0.0284163
r7341 194 195 1.93331
r7342 191 1692 10
r7343 189 1131 0.0168501
r7344 189 191 1.74484
r7345 186 1691 10
r7346 184 1128 0.0168501
r7347 184 186 1.74484
r7348 183 1125 0.0284163
r7349 182 1145 0.0284163
r7350 182 183 2.4385
r7351 179 1690 10
r7352 177 1125 0.0168501
r7353 177 179 1.74484
r7354 176 1122 0.0284163
r7355 175 1136 0.0284163
r7356 175 176 1.35041
r7357 174 1119 0.0284163
r7358 173 1134 0.0284163
r7359 173 174 1.03272
r7360 172 1116 0.0284163
r7361 171 1133 0.0284163
r7362 171 172 1.03272
r7363 168 1689 10
r7364 166 1122 0.0168501
r7365 166 168 1.74484
r7366 163 1688 10
r7367 161 1119 0.0168501
r7368 161 163 1.74484
r7369 158 1687 10
r7370 156 1116 0.0168501
r7371 156 158 1.74484
r7372 155 1113 0.0284163
r7373 154 1139 0.0284163
r7374 154 155 2.36078
r7375 151 1686 10
r7376 149 1113 0.0168501
r7377 149 151 1.74484
r7378 148 1110 0.0284163
r7379 147 1128 0.0284163
r7380 147 148 1.93331
r7381 144 1685 10
r7382 142 1110 0.0168501
r7383 142 144 1.74484
r7384 141 1108 0.0284163
r7385 140 1131 0.0284163
r7386 140 141 5.46963
r7387 137 1684 10
r7388 135 1108 0.0168501
r7389 135 137 1.74484
r7390 134 1106 0.0284163
r7391 133 1122 0.0284163
r7392 133 134 5.46963
r7393 130 1682 10
r7394 128 1106 0.0168501
r7395 128 130 1.74484
r7396 127 1103 0.0284163
r7397 126 1108 0.0284163
r7398 126 127 1.03272
r7399 123 1681 10
r7400 121 1103 0.0168501
r7401 121 123 1.74484
r7402 120 1100 0.0284163
r7403 119 1125 0.0284163
r7404 119 120 6.30513
r7405 116 1679 10
r7406 114 1100 0.0168501
r7407 114 116 1.74484
r7408 113 1097 0.0284163
r7409 112 1119 0.0284163
r7410 112 113 5.8971
r7411 111 1094 0.0284163
r7412 110 1113 0.0284163
r7413 110 111 5.54735
r7414 107 1678 10
r7415 105 1097 0.0168501
r7416 105 107 1.74484
r7417 102 1677 10
r7418 100 1094 0.0168501
r7419 100 102 1.74484
r7420 99 1091 0.0284163
r7421 98 1116 0.0284163
r7422 98 99 6.14969
r7423 95 1676 10
r7424 93 1091 0.0168501
r7425 93 95 1.74484
r7426 92 1088 0.0284163
r7427 91 1103 0.0284163
r7428 91 92 1.31835
r7429 90 1085 0.0284163
r7430 89 1110 0.0284163
r7431 89 90 5.97482
r7432 86 1675 10
r7433 84 1088 0.0168501
r7434 84 86 1.74484
r7435 83 1083 0.0284163
r7436 82 1094 0.0284163
r7437 82 83 0.985116
r7438 79 1674 10
r7439 77 1085 0.0168501
r7440 77 79 1.74484
r7441 74 1673 10
r7442 72 1083 0.0168501
r7443 72 74 1.74193
r7444 71 1082 0.0284163
r7445 70 1106 0.0284163
r7446 70 71 2.4385
r7447 67 1672 10
r7448 65 1082 0.0168501
r7449 65 67 1.74484
r7450 64 1080 0.0284163
r7451 63 1083 0.0284163
r7452 63 64 1.24354
r7453 62 1077 0.0284163
r7454 61 1085 0.0284163
r7455 61 62 1.35041
r7456 58 1670 10
r7457 56 1080 0.0168501
r7458 56 58 1.74193
r7459 53 1669 10
r7460 51 1077 0.0168501
r7461 51 53 1.74484
r7462 50 1073 0.0284163
r7463 49 1082 0.0284163
r7464 49 50 0.540162
r7465 46 1667 10
r7466 44 1073 0.0168501
r7467 44 46 1.74193
r7468 43 1070 0.0284163
r7469 42 1091 0.0284163
r7470 42 43 2.51622
r7471 39 1666 10
r7472 37 1070 0.0168501
r7473 37 39 1.74484
r7474 36 1066 0.0284163
r7475 35 1097 0.0284163
r7476 35 36 3.02141
r7477 34 1063 0.0284163
r7478 33 1080 0.0284163
r7479 33 34 0.540162
r7480 30 1665 10
r7481 28 1066 0.0168501
r7482 28 30 1.74484
r7483 25 1664 10
r7484 23 1063 0.0168501
r7485 23 25 1.74484
r7486 22 1060 0.0284163
r7487 21 1100 0.0284163
r7488 21 22 3.44888
r7489 18 1663 10
r7490 16 1060 0.0168501
r7491 16 18 1.74484
r7492 15 1057 0.0284163
r7493 14 1073 0.0284163
r7494 14 15 1.24354
r7495 11 1662 10
r7496 9 1057 0.0168501
r7497 9 11 1.74193
r7498 8 1054 0.0284163
r7499 7 1088 0.0284163
r7500 7 8 3.02141
r7501 4 1661 10
r7502 2 1054 0.0168501
r7503 2 4 1.74484
r7504 1 1472 30
r7505 1 1468 30
r7506 1 1464 10
r7507 1 1461 30
r7508 1 1457 30
r7509 1 1453 30
r7510 1 1449 30
r7511 1 1446 30
r7512 1 1442 30
r7513 1 1438 30
r7514 1 1434 30
r7515 1 1431 30
r7516 1 1428 30
r7517 1 1425 30
r7518 1 1422 10
r7519 1 1419 30
r7520 1 1416 30
r7521 1 1411 10
r7522 1 1408 30
r7523 1 1405 30
r7524 1 1402 30
r7525 1 1399 30
r7526 1 1395 30
r7527 1 1392 30
r7528 1 1388 30
r7529 1 1385 30
r7530 1 1382 30
r7531 1 1379 10
r7532 1 1376 30
r7533 1 1373 30
r7534 1 1370 30
r7535 1 1366 30
r7536 1 1362 10
r7537 1 1358 10
r7538 1 1352 30
r7539 1 1348 30
r7540 1 1345 30
r7541 1 1342 30
r7542 1 1339 10
r7543 1 1336 30
r7544 1 1333 10
r7545 1 1329 30
r7546 1 1325 30
r7547 1 1322 30
r7548 1 1319 30
r7549 1 1316 30
r7550 1 1313 30
r7551 1 1310 30
r7552 1 1307 30
r7553 1 1304 30
r7554 1 1301 30
r7555 1 1298 30
r7556 1 1295 30
r7557 1 1292 30
r7558 1 1289 30
r7559 1 1286 30
r7560 1 1283 30
r7561 1 1280 30
r7562 1 1277 30
r7563 1 1274 30
r7564 1 1271 30
r7565 1 1268 30
r7566 1 1265 30
r7567 1 1262 30
r7568 1 1259 30
r7569 1 1256 30
r7570 1 1253 30
r7571 1 1250 30
r7572 1 1247 30
r7573 1 1244 30
r7574 1 1241 30
r7575 1 1238 30
r7576 1 1235 30
r7577 1 1232 30
r7578 1 1229 30
r7579 1 1226 30
r7580 1 1223 30
r7581 1 1220 30
r7582 1 1217 30
r7583 1 1214 30
r7584 1 1211 30
r7585 1 1208 30
r7586 1 1205 30
r7587 1 1202 30
r7588 1 1199 30
r7589 1 1196 30
r7590 1 1193 30
r7591 1 1190 30
r7592 1 1187 30
r7593 1 1184 30
r7594 1 1181 30
r7595 1 1178 30
r7596 1 1175 30
r7597 1 1172 30
r7598 1 1169 30
r7599 1 1166 30
r7600 1 1163 30
r7601 1 1160 30
r7602 1 1157 30
r7603 1 1154 30
r7604 1 1151 30
r7605 1 1148 30
r7606 1 1145 30
r7607 1 1142 30
r7608 1 1139 30
r7609 1 1136 30
r7610 1 1131 30
r7611 1 1128 30
r7612 1 1125 30
r7613 1 1122 30
r7614 1 1119 15
r7615 1 1116 15
r7616 1 1113 30
r7617 1 1110 30
r7618 1 1106 30
r7619 1 1103 15
r7620 1 1100 30
r7621 1 1097 30
r7622 1 1094 30
r7623 1 1091 30
r7624 1 1088 30
r7625 1 1085 30
r7626 1 1080 10
r7627 1 1077 30
r7628 1 1073 10
r7629 1 1070 30
r7630 1 1066 30
r7631 1 1060 30
r7632 1 1054 30
.ends

.subckt PM_ALU%M62 6 10 12 17 23 24 27 30 33 34 38 44 45 46 49 50 52 54 57 58 59
+ 65 67
c181 57 0 5.51625e-20
c182 52 0 3.61125e-20
c183 50 0 1.24223e-19
c184 45 0 3.03515e-19
c185 38 0 1.94363e-19
c186 34 0 1.69565e-19
c187 33 0 1.3265e-19
c188 30 0 1.52182e-19
c189 6 0 1.59427e-19
r190 57 60 8.21526
r191 57 59 7.6702
r192 57 58 25
r193 50 70 0.0707869
r194 49 50 1.7
r195 47 49 0.164195
r196 45 47 0.0477651
r197 45 46 3.6987
r198 43 46 0.0477651
r199 43 44 0.103702
r200 41 67 0.0707869
r201 40 41 1.7
r202 38 44 0.0477651
r203 38 40 0.388882
r204 36 58 1.7
r205 34 70 0.0116717
r206 34 36 0.0165874
r207 33 66 0.119327
r208 33 65 0.130809
r209 32 33 1.7
r210 30 67 0.0116717
r211 30 32 0.0185013
r212 27 54 10
r213 25 27 0.645086
r214 23 25 0.0479332
r215 23 24 0.261842
r216 20 52 15
r217 17 20 0.528504
r218 17 66 0.960828
r219 17 52 10
r220 13 24 0.0479332
r221 13 65 0.0913224
r222 6 12 92.7559
r223 6 60 30.5606
r224 3 10 41.4961
r225 3 59 45.4016
.ends

.subckt PM_ALU%M86 6 10 12 15 20 27 28 31 34 37 40 41 43 44 46 48
c90 46 0 8.46689e-20
c91 40 0 8.25796e-20
c92 34 0 1.01169e-20
c93 31 0 1.46572e-20
r94 46 49 8.20482
r95 46 48 7.66686
r96 40 41 1.7
r97 36 40 1.57281
r98 36 37 1.7
r99 34 46 25
r100 33 34 1.7
r101 31 41 0.328389
r102 31 33 0.0900517
r103 30 37 0.328389
r104 29 30 0.0345486
r105 28 55 0.116167
r106 28 54 0.124967
r107 27 29 0.038806
r108 27 28 1.7
r109 23 43 15
r110 20 23 0.557649
r111 20 55 0.944312
r112 20 43 10
r113 15 54 0.823845
r114 15 44 10
r115 6 12 92.7559
r116 6 49 30.5606
r117 3 10 41.4961
r118 3 48 45.4016
.ends

.subckt PM_ALU%M81 6 10 12 17 23 24 27 31 34 38 39 40 43 44 47 48 50 52 54 56 64
c143 48 0 3.87875e-21
c144 40 0 1.01289e-19
c145 39 0 1.26308e-19
c146 34 0 2.81316e-19
c147 31 0 2.87521e-21
r148 54 57 8.20482
r149 54 56 7.66686
r150 48 54 25
r151 47 49 0.0288327
r152 47 48 1.7
r153 43 44 1.7
r154 41 43 10.542
r155 39 41 0.0477651
r156 39 40 0.352327
r157 38 49 0.0431862
r158 37 40 0.0477651
r159 37 38 0.133084
r160 34 65 0.119327
r161 34 64 0.130809
r162 30 44 0.251622
r163 30 31 0.0294892
r164 27 52 10
r165 25 31 0.0157402
r166 25 27 0.473128
r167 23 31 0.0294892
r168 23 24 0.510045
r169 20 50 15
r170 17 20 0.557649
r171 17 65 0.944312
r172 17 50 10
r173 13 24 0.0479332
r174 13 64 0.186531
r175 6 12 92.7559
r176 6 57 30.5606
r177 3 10 41.4961
r178 3 56 45.4016
.ends

.subckt PM_ALU%XU75/NET21 6 9 10 12 14 16 19 25 26 29 32 36 37 40 41 42 43 44
c121 37 0 3.32661e-19
c122 36 0 1.3265e-19
c123 25 0 1.11165e-19
c124 12 0 1.65573e-19
c125 10 0 1.86423e-19
c126 9 0 1.39727e-19
r127 40 42 0.129211
r128 36 37 25
r129 34 42 0.0934361
r130 34 36 0.0694061
r131 33 41 0.0363272